*WARNING DETAIL FILE

******************************************************************************
*DSSAT Cropping System Model Ver. 4.8.5.017 pre-release    JUN 28, 2025; 01:10:44

*RUN   0


 CSM     YEAR DOY =    0   0
 Error in the format of the batch file.  Please fix the file.                  
 File: /data/dssat-csm-data-develop/S                                          
    Line:     1                                                                
    Error key: CSM                                                             
 Simulations terminated.                                                       
