*EVAPOTRANSPIRATION / PHOTOSYNTHESIS DAILY OUTPUT FILE

*DSSAT Cropping System Model Ver. 4.8.5.017 pre-release  JUN 28, 2025 01:29:39

*RUN   1        : Radiance                  CRGRO048 UFBA1401    1
 MODEL          : CRGRO048 - Strawberry
 EXPERIMENT     : UFBA1401 SR 2014 BALM STRAWBERRY VARIETY TRIAL
 DATA PATH      : /data/Strawberry/
 TREATMENT  1   : Radiance                  CRGRO048
  
@YEAR DOY   DAS    LI%D   PHAD   PHAN    LI%N   SLLN   SLHN   N%LN   N%HN   LMLN   LMHN   TGON   TGAV
 2014 274     1    0.00   0.00    0.00   0.00   0.00   0.00   0.00   0.00   0.00   0.00  29.49  26.64
 2014 275     2    0.00   0.00    0.00   0.00   0.00   0.00   0.00   0.00   0.00   0.00  30.84  27.13
 2014 276     3    0.00   0.00    0.00   0.00   0.00   0.00   0.00   0.00   0.00   0.00  30.45  26.78
 2014 277     4    0.00   0.00    0.00   0.00   0.00   0.00   0.00   0.00   0.00   0.00  26.79  22.42
 2014 278     5    0.00   0.00    0.00   0.00   0.00   0.00   0.00   0.00   0.00   0.00  23.18  18.60
 2014 279     6    0.00   0.00    0.00   0.00   0.00   0.00   0.00   0.00   0.00   0.00  25.38  20.41
 2014 280     7    0.00   0.00    0.00   0.00   0.00   0.00   0.00   0.00   0.00   0.00  27.79  24.05
 2014 281     8    0.00   0.00    0.00   0.00   0.00   0.00   0.00   0.00   0.00   0.00  29.65  25.46
 2014 282     9    0.00   0.00    0.00   0.00   0.00   0.00   0.00   0.00   0.00   0.00  29.10  25.02
 2014 283    10    0.28   0.15    0.01   0.25   7.29   7.27   4.59   4.58   5.90   5.88  29.36  24.83
 2014 284    11    3.49   1.73    0.09   3.08   7.27   7.25   4.58   4.57   5.84   5.82  29.85  25.32
 2014 285    12    3.68   1.78    0.09   3.26   7.26   7.24   4.57   4.56   5.87   5.86  29.40  24.98
 2014 286    13    3.85   1.81    0.10   3.42   7.24   7.22   4.56   4.55   5.85   5.83  29.48  25.24
 2014 287    14    4.86   0.92    0.06   4.86   7.23   7.21   4.55   4.54   6.02   6.01  27.69  25.18
 2014 288    15    4.43   1.79    0.10   4.13   7.20   7.18   4.53   4.53   6.21   6.19  25.56  21.33
 2014 289    16    4.24   2.12    0.11   3.70   7.18   7.16   4.52   4.51   6.31   6.29  24.44  20.17
 2014 290    17    4.31   2.20    0.11   3.74   7.17   7.15   4.51   4.50   6.27   6.26  24.66  19.32
 2014 291    18    4.41   2.19    0.11   3.83   7.16   7.14   4.49   4.49   6.24   6.22  24.96  19.29
 2014 292    19    4.58   2.10    0.11   4.04   7.15   7.13   4.48   4.48   6.13   6.12  25.90  20.67
 2014 293    20    4.80   2.00    0.11   4.33   7.11   7.10   4.47   4.46   6.03   6.02  26.62  21.64
 2014 294    21    5.80   1.54    0.09   5.73   6.99   6.96   4.47   4.46   5.90   5.88  26.89  23.54
 2014 295    22    5.52   2.31    0.12   4.93   6.79   6.77   4.46   4.45   5.68   5.66  27.51  23.47
 2014 296    23    5.95   2.78    0.15   5.15   6.66   6.63   4.46   4.45   5.76   5.73  25.41  21.03
 2014 297    24    6.46   2.99    0.16   5.62   6.57   6.54   4.46   4.45   5.76   5.74  24.50  20.13
 2014 298    25    6.95   3.32    0.17   6.00   6.51   6.48   4.46   4.45   5.75   5.73  23.98  19.40
 2014 299    26    7.46   3.55    0.19   6.45   6.48   6.45   4.46   4.45   5.67   5.64  24.39  17.85
 2014 300    27    8.07   3.73    0.20   6.93   6.52   6.49   4.47   4.45   5.63   5.60  25.48  19.50
 2014 301    28    8.60   3.84    0.20   7.46   6.53   6.49   4.46   4.45   5.55   5.52  26.50  21.11
 2014 302    29    9.42   3.50    0.20   8.67   6.49   6.45   4.46   4.44   5.47   5.44  26.98  21.94
 2014 303    30   10.28   3.44    0.20   9.75   6.41   6.37   4.45   4.43   5.44   5.40  26.52  22.09
 2014 304    31   10.59   4.85    0.27   9.56   6.30   6.25   4.44   4.42   5.65   5.60  23.02  20.21
 2014 305    32   11.39   5.23    0.29  10.28   6.19   6.14   4.45   4.43   4.66   4.62  15.88  12.66
 2014 306    33   11.96   5.41    0.31  10.70   6.33   6.27   4.46   4.44   4.43   4.39  16.53  11.46
 2014 307    34   12.52   5.59    0.32  11.34   6.43   6.37   4.47   4.44   5.55   5.50  19.67  13.82
 2014 308    35   13.22   5.35    0.31  12.31   6.49   6.42   4.47   4.44   5.78   5.72  23.47  18.18
 2014 309    36   13.86   5.49    0.32  12.91   6.47   6.40   4.46   4.43   5.60   5.53  25.43  21.30
 2014 310    37   14.86   5.15    0.31  14.26   6.38   6.30   4.45   4.42   5.43   5.36  26.39  22.02
 2014 311    38   15.30   6.63    0.38  13.97   6.28   6.20   4.45   4.41   5.62   5.55  23.16  18.42
 2014 312    39   16.51   5.54    0.34  16.06   6.28   6.20   4.45   4.42   5.68   5.60  22.48  17.44
 2014 313    40   17.76   3.75    0.24  17.76   6.27   6.18   4.44   4.41   5.51   5.43  18.59  16.35
 2014 314    41   17.17   7.75    0.44  15.50   6.21   6.12   4.42   4.38   5.61   5.52  22.50  18.38
 2014 315    42   17.95   8.19    0.46  16.18   6.21   6.11   4.45   4.41   5.66   5.56  21.97  17.83
 2014 316    43   18.75   8.68    0.49  16.80   6.22   6.12   4.45   4.40   5.59   5.49  22.89  17.42
 2014 317    44   19.47   8.51    0.49  17.59   6.26   6.15   4.45   4.41   5.45   5.34  23.42  16.66
 2014 318    45   21.16   5.65    0.36  21.02   6.30   6.18   4.46   4.41   5.74   5.62  19.35  15.56
 2014 319    46   20.66   9.03    0.53  18.77   6.28   6.16   4.44   4.39   5.75   5.62  20.94  15.62
 2014 320    47   21.35   8.46    0.49  19.78   6.31   6.18   4.46   4.40   5.51   5.39  24.87  19.63
 2014 321    48   23.16   4.91    0.31  23.12   6.30   6.16   4.45   4.39   5.43   5.30  25.67  21.61
 2014 322    49   23.71   3.14    0.20  23.71   6.23   6.09   4.43   4.37   4.63   4.52  16.78  12.08
 2014 323    50   23.15   7.77    0.49  22.24   6.21   6.07   4.43   4.37   3.37   3.28  13.60   9.28
 2014 324    51   23.42   8.77    0.54  22.08   6.29   6.14   4.45   4.39   4.46   4.35  16.21  11.59
 2014 325    52   24.11   8.33    0.52  23.25   6.34   6.19   4.46   4.39   5.88   5.72  20.77  16.42
 2014 326    53   25.46   5.62    0.36  25.41   6.33   6.17   4.45   4.38   5.75   5.59  22.19  20.03
 2014 327    54   25.13   7.94    0.49  24.28   6.25   6.08   4.42   4.36   5.22   5.07  27.44  24.54
 2014 328    55   25.82   7.97    0.50  25.04   6.19   6.02   4.43   4.36   5.18   5.03  27.42  24.65
 2014 329    56   27.32   3.75    0.25  27.32   6.14   5.96   4.43   4.36   5.31   5.14  25.38  23.06
 2014 330    57   27.79   5.40    0.35  27.79   6.08   5.90   4.40   4.33   5.42   5.24  19.12  14.58
 2014 331    58   27.01  11.31    0.68  24.57   6.07   5.89   4.42   4.34   4.77   4.62  17.78  12.71
 2014 332    59   27.58  11.08    0.67  25.06   6.13   5.94   4.44   4.36   3.58   3.46  13.84   9.84
 2014 333    60   28.01  11.69    0.71  25.63   6.24   6.04   4.45   4.37   5.35   5.17  19.11  13.77
 2014 334    61   28.52  11.28    0.68  26.47   6.28   6.08   4.45   4.37   5.70   5.50  22.29  17.42
 2014 335    62   29.30  10.25    0.64  27.96   6.29   6.08   4.45   4.36   5.65   5.45  22.91  18.88
 2014 336    63   30.53   8.74    0.56  30.06   6.26   6.04   4.45   4.35   5.65   5.43  22.63  19.95
 2014 337    64   30.76   9.91    0.63  29.76   6.19   5.96   4.44   4.34   5.49   5.27  23.70  20.48
 2014 338    65   31.02  11.43    0.70  29.14   6.13   5.89   4.44   4.34   5.39   5.16  24.36  20.44
 2014 339    66   31.90  10.87    0.68  30.52   6.10   5.85   4.44   4.34   5.40   5.16  23.90  20.85
 2014 340    67   32.47  11.17    0.69  30.84   6.04   5.79   4.44   4.33   5.17   4.94  26.01  22.20
 2014 341    68   34.50   7.15    0.47  34.44   6.00   5.74   4.44   4.33   5.51   5.24  21.41  18.23
 2014 342    69   35.02   4.25    0.28  35.02   5.97   5.70   4.42   4.31   4.87   4.63  17.13  15.25
 2014 343    70   33.87  12.95    0.80  31.83   5.95   5.69   4.41   4.30   4.60   4.37  16.21  13.20
 2014 344    71   34.23  13.26    0.83  31.57   6.01   5.74   4.46   4.34   3.78   3.59  15.41  10.49
 2014 345    72   34.62  13.19    0.83  32.03   6.09   5.80   4.47   4.35   3.68   3.49  14.97  10.16
 2014 346    73   36.68   7.41    0.49  36.66   6.16   5.87   4.48   4.35   3.39   3.21  12.30   9.59
 2014 347    74   35.21  13.97    0.88  32.51   6.19   5.89   4.48   4.35   4.26   4.04  16.85  11.37
 2014 348    75   35.57  13.86    0.89  32.88   6.25   5.94   4.49   4.36   4.24   4.02  17.27  11.36
 2014 349    76   35.93  13.45    0.89  33.24   6.30   5.98   4.49   4.36   4.13   3.91  18.14  11.39
 2014 350    77   36.30  14.09    0.89  33.92   6.34   6.01   4.50   4.36   5.23   4.95  19.25  13.30
 2014 351    78   37.08  12.93    0.83  35.56   6.37   6.04   4.50   4.36   5.87   5.54  20.27  15.16
 2014 352    79   36.98  14.59    0.92  34.48   6.38   6.04   4.50   4.36   4.67   4.41  17.24  11.93
 2014 353    80   37.38  14.80    0.93  35.01   6.42   6.07   4.51   4.36   5.88   5.54  20.09  14.84
 2014 354    81   37.74  14.61    0.90  35.44   6.44   6.08   4.51   4.36   5.79   5.44  22.95  17.81
 2014 355    82   39.77  10.00    0.66  39.47   6.44   6.07   4.51   4.35   5.73   5.38  23.62  19.55
 2014 356    83   40.19   9.67    0.64  39.92   6.42   6.05   4.49   4.34   5.57   5.22  25.24  22.30
 2014 357    84   40.32  10.58    0.69  39.85   6.38   6.00   4.49   4.33   5.45   5.10  26.24  23.13
 2014 358    85   41.36   8.30    0.55  41.28   6.34   5.96   4.48   4.32   5.49   5.13  25.36  22.29
 2014 359    86   41.56  10.38    0.69  41.34   6.31   5.92   4.47   4.31   5.19   4.84  17.25  14.65
 2014 360    87   41.89  10.22    0.68  41.68   6.31   5.92   4.48   4.32   5.70   5.31  19.14  15.40
 2014 361    88   41.27  12.40    0.80  40.37   6.31   5.92   4.48   4.31   5.54   5.17  24.47  21.10
 2014 362    89   40.76  14.41    0.90  38.89   6.29   5.89   4.47   4.31   5.51   5.12  24.61  20.50
 2014 363    90   41.41  13.86    0.88  39.95   6.28   5.87   4.48   4.31   5.54   5.15  24.13  20.05
 2014 364    91   43.41   4.34    0.29  43.41   6.27   5.86   4.47   4.30   5.87   5.45  20.04  18.67
 2014 365    92   43.68   5.59    0.38  43.68   6.25   5.85   4.45   4.28   5.29   4.91  17.81  16.70
 2015 001    93   43.89   5.62    0.38  43.89   6.24   5.84   4.45   4.28   5.28   4.90  17.81  16.70

*DSSAT Cropping System Model Ver. 4.8.5.017 pre-release  JUN 28, 2025 01:29:44

*RUN   2        : Radiance                  CRGRO048 UFBA1601    1
 MODEL          : CRGRO048 - Strawberry
 EXPERIMENT     : UFBA1601 SR 2016 BALM STRAWBERRY VARIETY TRIAL
 DATA PATH      : /data/Strawberry/
 TREATMENT  1   : Radiance                  CRGRO048
  
@YEAR DOY   DAS    LI%D   PHAD   PHAN    LI%N   SLLN   SLHN   N%LN   N%HN   LMLN   LMHN   TGON   TGAV
 2016 274     1    0.00   0.00    0.00   0.00   0.00   0.00   0.00   0.00   0.00   0.00  29.21  26.02
 2016 275     2    0.00   0.00    0.00   0.00   0.00   0.00   0.00   0.00   0.00   0.00  30.06  26.16
 2016 276     3    0.00   0.00    0.00   0.00   0.00   0.00   0.00   0.00   0.00   0.00  31.03  26.89
 2016 277     4    0.00   0.00    0.00   0.00   0.00   0.00   0.00   0.00   0.00   0.00  28.14  25.45
 2016 278     5    0.00   0.00    0.00   0.00   0.00   0.00   0.00   0.00   0.00   0.00  30.25  27.00
 2016 279     6    0.00   0.00    0.00   0.00   0.00   0.00   0.00   0.00   0.00   0.00  30.56  27.13
 2016 280     7    0.00   0.00    0.00   0.00   0.00   0.00   0.00   0.00   0.00   0.00  29.06  26.44
 2016 281     8    0.00   0.00    0.00   0.00   0.00   0.00   0.00   0.00   0.00   0.00  26.03  24.91
 2016 282     9    0.00   0.00    0.00   0.00   0.00   0.00   0.00   0.00   0.00   0.00  28.80  25.70
 2016 283    10    0.31   0.16    0.01   0.27   7.29   7.27   4.59   4.58   6.05   6.03  28.27  24.16
 2016 284    11    3.73   1.72    0.09   3.41   7.27   7.25   4.58   4.57   6.29   6.27  25.76  21.82
 2016 285    12    4.45   1.42    0.08   4.38   7.25   7.23   4.57   4.56   6.26   6.24  25.89  22.79
 2016 286    13    4.25   1.66    0.09   4.02   7.22   7.21   4.55   4.55   6.09   6.07  27.40  23.96
 2016 287    14    4.19   1.77    0.10   3.85   7.20   7.18   4.54   4.53   5.97   5.96  28.33  24.96
 2016 288    15    4.24   1.88    0.10   3.83   7.19   7.17   4.53   4.52   6.03   6.02  27.61  24.42
 2016 289    16    5.00   1.40    0.08   4.94   7.17   7.15   4.52   4.51   5.94   5.93  28.37  25.11
 2016 290    17    4.83   1.67    0.10   4.62   7.15   7.13   4.51   4.50   5.94   5.93  28.19  24.80
 2016 291    18    4.67   1.89    0.10   4.24   7.12   7.10   4.50   4.49   5.89   5.87  28.52  24.81
 2016 292    19    5.06   1.76    0.10   4.80   7.07   7.05   4.49   4.48   5.88   5.86  28.23  24.18
 2016 293    20    5.22   2.10    0.11   4.75   6.90   6.88   4.48   4.47   5.79   5.77  27.62  23.57
 2016 294    21    5.66   2.26    0.12   5.17   6.74   6.72   4.48   4.47   5.69   5.67  27.36  23.05
 2016 295    22    6.24   2.38    0.13   5.74   6.61   6.59   4.48   4.47   5.64   5.62  26.59  22.35
 2016 296    23    6.46   3.12    0.17   5.61   6.49   6.46   4.47   4.46   5.94   5.91  21.97  17.52
 2016 297    24    6.94   3.24    0.18   6.06   6.50   6.47   4.47   4.46   5.78   5.76  21.90  15.70
 2016 298    25    7.41   3.40    0.18   6.52   6.54   6.51   4.48   4.47   5.83   5.80  23.79  19.03
 2016 299    26    8.06   3.30    0.18   7.34   6.52   6.48   4.47   4.45   5.74   5.71  24.59  20.05
 2016 300    27    8.58   3.68    0.20   7.55   6.46   6.42   4.46   4.45   5.53   5.50  26.38  22.18
 2016 301    28    9.52   3.41    0.20   8.92   6.36   6.32   4.46   4.44   5.44   5.40  26.42  22.67
 2016 302    29   10.27   3.58    0.21   9.64   6.24   6.19   4.46   4.44   5.34   5.30  26.44  23.28
 2016 303    30   11.07   3.65    0.22  10.74   6.12   6.07   4.45   4.43   5.21   5.17  26.70  23.30
 2016 304    31   11.56   4.21    0.24  10.94   6.01   5.96   4.45   4.43   5.05   5.01  27.52  23.65
 2016 305    32   12.09   5.19    0.29  10.98   5.93   5.87   4.45   4.43   5.05   5.00  26.68  22.57
 2016 306    33   12.99   5.05    0.29  12.14   5.88   5.82   4.45   4.43   5.06   5.00  26.12  21.40
 2016 307    34   14.09   4.47    0.27  13.73   5.85   5.79   4.45   4.42   4.96   4.90  27.06  22.96
 2016 308    35   14.56   5.18    0.30  13.88   5.78   5.71   4.44   4.41   4.96   4.90  26.23  22.61
 2016 309    36   15.28   5.56    0.32  14.49   5.72   5.64   4.44   4.41   4.90   4.83  26.34  21.69
 2016 310    37   15.84   6.49    0.37  14.56   5.69   5.61   4.44   4.41   4.93   4.86  25.62  22.00
 2016 311    38   16.75   6.56    0.38  15.58   5.65   5.56   4.44   4.41   4.89   4.81  25.74  21.65
 2016 312    39   18.05   5.86    0.36  17.58   5.62   5.53   4.44   4.40   4.98   4.89  24.27  20.42
 2016 313    40   18.31   7.29    0.42  16.94   5.59   5.49   4.44   4.39   4.86   4.77  25.36  21.18
 2016 314    41   19.44   6.73    0.40  18.64   5.58   5.47   4.44   4.40   4.84   4.75  25.48  21.16
 2016 315    42   19.89   8.43    0.48  18.13   5.56   5.44   4.44   4.39   4.92   4.82  24.17  19.69
 2016 316    43   20.71   8.51    0.49  19.06   5.59   5.47   4.44   4.39   4.99   4.88  23.64  18.79
 2016 317    44   21.48   8.72    0.50  19.77   5.63   5.50   4.44   4.39   4.95   4.84  24.60  19.17
 2016 318    45   22.29   8.52    0.50  20.83   5.67   5.53   4.44   4.39   4.96   4.83  25.03  19.16
 2016 319    46   24.22   4.23    0.27  24.22   5.70   5.56   4.44   4.38   5.27   5.13  21.25  19.32
 2016 320    47   24.47   6.83    0.43  24.23   5.63   5.48   4.41   4.35   5.29   5.14  20.00  16.65
 2016 321    48   24.11   9.56    0.56  22.39   5.63   5.48   4.43   4.37   5.13   4.99  22.19  17.32
 2016 322    49   24.79  10.47    0.61  22.57   5.67   5.51   4.44   4.37   5.15   5.00  22.40  16.89
 2016 323    50   25.45  10.21    0.60  23.48   5.73   5.56   4.44   4.38   5.11   4.96  23.70  18.86
 2016 324    51   26.14  10.11    0.60  24.40   5.75   5.58   4.44   4.37   5.17   5.01  23.17  18.48
 2016 325    52   26.76  11.62    0.68  24.33   5.77   5.59   4.44   4.37   4.71   4.56  17.47  13.29
 2016 326    53   27.36  10.86    0.67  24.98   5.85   5.66   4.45   4.38   4.03   3.89  17.46  11.46
 2016 327    54   27.88  11.33    0.69  25.55   5.92   5.73   4.46   4.38   4.94   4.77  20.28  13.68
 2016 328    55   28.86   9.64    0.60  27.86   5.98   5.78   4.47   4.38   5.31   5.12  24.01  18.11
 2016 329    56   29.30   9.91    0.61  28.15   5.99   5.78   4.46   4.37   5.24   5.05  25.02  20.31
 2016 330    57   29.60  10.94    0.66  27.82   5.97   5.76   4.45   4.36   5.17   4.98  25.60  21.36
 2016 331    58   30.69  10.14    0.63  29.67   5.94   5.72   4.45   4.36   5.30   5.09  23.74  19.57
 2016 332    59   31.03  11.19    0.69  29.53   5.92   5.69   4.45   4.35   5.39   5.17  22.34  17.19
 2016 333    60   32.43   9.22    0.59  31.99   5.94   5.70   4.45   4.36   5.38   5.15  22.71  18.34
 2016 334    61   32.06  11.34    0.69  30.37   5.93   5.68   4.45   4.34   5.09   4.87  26.19  21.96
 2016 335    62   33.89   8.45    0.55  33.62   5.90   5.65   4.45   4.34   5.15   4.91  25.15  22.16
 2016 336    63   33.78  10.48    0.66  32.82   5.84   5.58   4.44   4.33   5.05   4.81  25.80  22.41
 2016 337    64   33.85  13.03    0.79  31.74   5.80   5.54   4.44   4.33   5.30   5.04  22.04  18.08
 2016 338    65   34.44  13.19    0.80  32.26   5.81   5.54   4.44   4.33   5.25   4.98  22.92  17.66
 2016 339    66   35.00  12.91    0.78  32.87   5.84   5.56   4.45   4.33   5.04   4.78  25.92  21.46
 2016 340    67   36.46  10.34    0.66  35.75   5.83   5.54   4.44   4.32   4.93   4.66  27.17  23.12
 2016 341    68   37.83   5.72    0.38  37.83   5.80   5.50   4.44   4.31   5.05   4.77  25.25  21.97
 2016 342    69   36.60  13.67    0.84  34.48   5.76   5.46   4.42   4.29   5.22   4.92  22.70  19.18
 2016 343    70   38.16  11.13    0.72  37.58   5.76   5.45   4.45   4.32   5.40   5.09  19.92  16.61
 2016 344    71   38.95  10.15    0.67  38.68   5.76   5.45   4.44   4.31   4.30   4.05  15.51  13.13
 2016 345    72   37.86  14.44    0.90  35.59   5.79   5.48   4.45   4.32   5.37   5.05  20.02  14.98
 2016 346    73   39.37  11.00    0.72  38.83   5.83   5.51   4.46   4.32   5.28   4.96  22.82  18.24
 2016 347    74   39.42  11.65    0.75  38.54   5.83   5.50   4.45   4.31   5.08   4.77  25.26  21.38
 2016 348    75   39.27  13.30    0.83  37.50   5.80   5.47   4.45   4.31   5.01   4.69  25.90  21.45
 2016 349    76   39.86  13.34    0.84  38.25   5.79   5.45   4.45   4.31   5.11   4.78  24.49  20.98
 2016 350    77   40.08  14.40    0.90  38.10   5.78   5.43   4.45   4.30   5.25   4.90  22.51  18.40
 2016 351    78   40.32  15.02    0.93  38.00   5.80   5.44   4.45   4.30   5.21   4.86  23.28  17.70
 2016 352    79   40.96  13.85    0.87  39.18   5.83   5.47   4.46   4.31   5.06   4.71  25.58  20.81
 2016 353    80   42.31  10.88    0.71  41.82   5.83   5.46   4.46   4.30   4.91   4.57  27.50  24.03
 2016 354    81   41.77  13.25    0.83  40.21   5.82   5.44   4.45   4.29   4.86   4.52  27.95  23.90
 2016 355    82   43.57   9.07    0.60  43.48   5.81   5.43   4.45   4.29   5.24   4.87  22.97  20.87
 2016 356    83   43.91   8.57    0.57  43.89   5.78   5.40   4.43   4.27   5.18   4.80  18.89  16.65
 2016 357    84   42.16  15.75    0.98  39.80   5.78   5.40   4.42   4.27   5.20   4.82  23.08  18.13
 2016 358    85   42.45  15.72    0.97  40.09   5.80   5.42   4.44   4.28   5.14   4.76  24.23  19.22
 2016 359    86   42.83  15.13    0.94  40.66   5.82   5.43   4.45   4.28   5.01   4.64  26.18  21.23
 2016 360    87   43.25  14.65    0.91  41.35   5.83   5.44   4.45   4.28   4.98   4.61  26.63  22.55
 2016 361    88   43.56  14.65    0.91  41.71   5.83   5.43   4.44   4.28   4.97   4.59  26.69  22.72
 2016 362    89   43.88  14.71    0.92  42.09   5.82   5.42   4.44   4.28   4.98   4.60  26.47  22.29
 2016 363    90   43.95  15.50    0.96  41.80   5.82   5.41   4.44   4.27   4.98   4.59  26.46  21.95
 2016 364    91   44.19  16.15    1.00  42.01   5.82   5.41   4.45   4.27   5.19   4.79  23.77  19.59
 2016 365    92   45.00  14.91    0.96  43.61   5.83   5.42   4.45   4.27   3.33   3.07  13.37   9.65
 2016 366    93   44.44  15.69    1.05  41.89   5.91   5.48   4.48   4.30   4.06   3.75  19.59  12.10
 2017 001    94   45.24  15.35    0.97  43.57   5.96   5.53   4.48   4.30   5.24   4.83  24.75  19.10
 2017 002    95   45.24  15.47    0.96  43.36   5.98   5.54   4.48   4.29   5.06   4.66  27.10  22.49
 2017 003    96   46.13  14.35    0.91  44.96   5.98   5.53   4.47   4.29   5.16   4.74  25.94  22.32
 2017 004    97   46.09  15.89    1.01  44.60   5.97   5.52   4.47   4.28   5.53   5.08  21.08  16.90
 2017 005    98   46.01  16.74    1.05  44.17   5.98   5.54   4.48   4.29   5.55   5.09  21.13  17.01
 2017 006    99   45.87  17.43    1.08  43.65   6.00   5.55   4.48   4.29   5.42   4.98  22.87  17.21
 2017 007   100   48.67   5.12    0.34  48.67   6.04   5.58   4.49   4.30   4.40   4.04  17.96  11.96
 2017 008   101   45.88  13.16    0.91  43.15   6.04   5.58   4.48   4.29   1.72   1.58   9.97   5.75
 2017 009   102   46.24  17.22    1.11  43.90   6.11   5.64   4.52   4.32   3.77   3.47  16.10  10.47
 2017 010   103   47.42  16.44    1.05  46.13   6.16   5.69   4.52   4.32   5.30   4.87  18.57  13.84
 2017 011   104   47.26  16.97    1.07  45.68   6.20   5.72   4.52   4.32   5.71   5.24  21.55  16.61
 2017 012   105   46.48  19.14    1.17  43.96   6.22   5.74   4.52   4.31   5.56   5.10  23.67  18.60
 2017 013   106   49.03  14.21    0.92  48.47   6.24   5.76   4.52   4.31   5.65   5.18  22.80  19.71
 2017 014   107   48.69  15.30    0.97  47.80   6.23   5.74   4.50   4.30   5.55   5.08  23.88  19.78
 2017 015   108   49.08  15.02    0.96  48.35   6.23   5.74   4.50   4.30   5.61   5.14  23.09  19.15
 2017 016   109   49.37  14.58    0.93  48.75   6.22   5.74   4.49   4.29   5.54   5.07  23.94  19.43
 2017 017   110   47.73  17.81    1.10  45.87   6.22   5.74   4.48   4.28   5.46   4.99  24.91  20.33
 2017 018   111   47.82  18.25    1.13  45.95   6.22   5.74   4.48   4.28   5.59   5.12  23.33  18.44
 2017 019   112   47.47  19.09    1.16  45.24   6.23   5.75   4.48   4.28   5.51   5.05  24.34  18.65
 2017 020   113   48.61  17.25    1.07  47.19   6.25   5.76   4.49   4.29   5.52   5.05  24.46  19.60
 2017 021   114   47.54  19.27    1.17  45.28   6.25   5.77   4.48   4.28   5.43   4.97  25.53  20.94
 2017 022   115   51.07  10.02    0.65  51.07   6.26   5.77   4.48   4.28   5.43   4.97  25.61  22.47
 2017 023   116   49.25  17.38    1.10  48.19   6.25   5.77   4.46   4.26   5.75   5.26  19.47  17.57
 2017 024   117   47.15  21.82    1.33  44.52   6.24   5.77   4.46   4.26   5.64   5.16  19.07  15.01
 2017 025   118   47.43  20.80    1.26  45.02   6.28   5.80   4.48   4.28   5.72   5.24  21.95  16.33
 2017 026   119   50.60  14.75    0.94  50.16   6.31   5.83   4.48   4.28   5.66   5.18  23.49  20.61
 2017 027   120   50.35  15.96    1.01  49.82   6.30   5.82   4.46   4.26   5.44   4.98  18.09  15.55
 2017 028   121   51.01  13.96    0.89  50.81   6.30   5.83   4.46   4.27   4.03   3.70  13.54  11.06
 2017 029   122   51.41   8.69    0.56  51.41   6.34   5.86   4.48   4.28   3.75   3.44  12.80  10.26
 2017 030   123   47.09  21.94    1.33  44.46   6.35   5.88   4.48   4.28   4.22   3.87  15.19  10.91
 2017 031   124   47.25  21.29    1.32  44.72   6.43   5.95   4.50   4.30   4.60   4.23  18.21  11.88
 2017 032   125   47.36  22.04    1.35  44.88   6.49   6.00   4.51   4.30   5.49   5.04  20.66  14.06
 2017 033   126   48.12  21.01    1.26  46.09   6.54   6.04   4.52   4.31   5.92   5.43  22.80  17.28
 2017 034   127   47.64  22.15    1.32  45.34   6.55   6.05   4.52   4.31   5.91   5.42  23.08  18.04
 2017 035   128   48.03  21.73    1.30  45.97   6.57   6.07   4.52   4.31   6.00   5.51  22.19  17.82
 2017 036   129   49.21  20.16    1.23  47.75   6.57   6.08   4.51   4.30   6.04   5.55  21.77  17.71
 2017 037   130   47.83  21.81    1.29  45.76   6.57   6.08   4.50   4.30   5.83   5.36  24.16  18.49
 2017 038   131   48.85  20.14    1.21  47.25   6.58   6.09   4.50   4.29   5.72   5.26  25.47  20.86
 2017 039   132   49.73  19.30    1.17  48.56   6.58   6.09   4.49   4.28   5.84   5.36  24.14  20.52
 2017 040   133   47.91  21.86    1.30  46.02   6.57   6.09   4.47   4.27   5.88   5.40  23.58  19.30
 2017 041   134   46.91  24.22    1.45  44.71   6.56   6.08   4.46   4.26   6.07   5.57  20.19  15.01
 2017 042   135   47.03  23.62    1.39  44.91   6.61   6.12   4.46   4.26   5.87   5.39  23.54  17.20
 2017 043   136   47.07  23.76    1.40  45.01   6.63   6.14   4.46   4.26   5.97   5.48  23.17  17.58
 2017 044   137   48.27  21.58    1.27  46.62   6.64   6.16   4.45   4.25   5.84   5.36  24.66  19.92
 2017 045   138   50.31  19.04    1.15  49.44   6.63   6.16   4.43   4.23   5.88   5.39  24.21  20.09
 2017 046   139   50.56  18.57    1.13  49.83   6.63   6.15   4.41   4.21   5.88   5.39  24.11  21.05
 2017 047   140   46.48  24.68    1.46  44.52   6.62   6.15   4.39   4.20   5.34   4.90  17.71  12.99
 2017 048   141   46.45  23.03    1.41  44.53   6.66   6.19   4.40   4.20   4.87   4.47  20.85  13.10
 2017 049   142   52.39  14.44    0.89  52.34   6.72   6.24   4.40   4.20   6.17   5.66  21.54  16.30
 2017 050   143   48.49  21.73    1.28  47.09   6.71   6.24   4.38   4.18   5.92   5.43  24.44  20.09
 2017 051   144   46.46  24.06    1.39  44.68   6.71   6.24   4.36   4.17   5.83   5.34  25.31  19.78
 2017 052   145   51.73  16.43    1.00  51.50   6.71   6.24   4.35   4.15   5.95   5.46  23.89  19.99
 2017 053   146   52.18   9.84    0.61  52.18   6.70   6.24   4.33   4.14   6.22   5.69  20.75  17.67
 2017 054   147   51.33  17.23    1.04  51.03   6.69   6.24   4.31   4.12   5.95   5.45  23.62  18.59
 2017 055   148   47.43  22.04    1.28  45.97   6.69   6.24   4.29   4.11   5.68   5.20  26.54  22.87
 2017 056   149   47.63  22.43    1.31  46.25   6.68   6.24   4.28   4.09   5.89   5.39  24.11  20.53
 2017 057   150   45.27  25.60    1.47  43.61   6.68   6.23   4.26   4.07   5.91   5.41  23.64  18.78
 2017 058   151   47.24  22.17    1.28  45.84   6.69   6.25   4.25   4.06   5.63   5.15  26.85  21.43
 2017 059   152   48.35  20.72    1.20  47.23   6.69   6.26   4.23   4.05   5.51   5.04  28.12  23.56
 2017 060   153   45.95  23.42    1.33  44.41   6.70   6.26   4.22   4.04   5.54   5.06  27.78  22.94
 2017 061   154   45.86  24.26    1.38  44.34   6.71   6.27   4.21   4.03   5.73   5.24  25.71  21.50
 2017 062   155   45.42  25.85    1.48  43.91   6.71   6.27   4.20   4.02   6.03   5.51  22.34  18.16
 2017 063   156   45.39  26.15    1.51  43.90   6.75   6.31   4.20   4.01   6.03   5.50  21.90  16.08
 2017 064   157   47.52  24.17    1.39  46.22   6.81   6.36   4.20   4.01   6.11   5.57  22.40  18.70
 2017 065   158   49.61  22.19    1.29  48.76   6.82   6.38   4.19   4.00   6.11   5.57  22.54  18.10
 2017 066   159   48.51  23.20    1.33  47.39   6.84   6.39   4.18   4.00   5.96   5.43  24.28  18.72
 2017 067   160   49.22  22.45    1.29  48.23   6.87   6.41   4.18   3.99   5.85   5.32  25.73  20.66
 2017 068   161   48.68  22.91    1.31  47.57   6.88   6.42   4.17   3.98   5.76   5.24  26.77  21.34
 2017 069   162   46.05  26.28    1.49  44.68   6.89   6.43   4.16   3.97   5.98   5.44  24.30  20.30
 2017 070   163   45.56  26.60    1.49  44.23   6.90   6.45   4.15   3.96   5.77   5.24  26.69  21.47
 2017 071   164   52.56  17.47    1.03  52.53   6.92   6.46   4.14   3.95   5.99   5.44  24.44  21.11
 2017 072   165   52.79  11.40    0.68  52.79   6.91   6.46   4.12   3.93   6.14   5.57  22.51  19.70
 2017 073   166   47.13  26.69    1.52  45.85   6.90   6.46   4.10   3.91   6.01   5.45  18.82  16.65
 2017 074   167   45.54  26.15    1.51  44.25   6.92   6.48   4.09   3.91   3.83   3.47  14.09   9.59
 2017 075   168   45.41  24.77    1.50  44.18   7.05   6.59   4.11   3.92   3.64   3.30  16.07   9.66
 2017 076   169   46.70  27.28    1.57  45.43   7.13   6.67   4.12   3.93   5.81   5.27  19.86  13.42
 2017 077   170   46.11  28.94    1.64  44.90   7.21   6.74   4.13   3.94   6.36   5.77  21.91  15.96

*DSSAT Cropping System Model Ver. 4.8.5.017 pre-release  JUN 28, 2025 01:29:54

*RUN   3        : Brilliance                CRGRO048 UFBA1601    2
 MODEL          : CRGRO048 - Strawberry
 EXPERIMENT     : UFBA1601 SR 2016 BALM STRAWBERRY VARIETY TRIAL
 DATA PATH      : /data/Strawberry/
 TREATMENT  2   : Brilliance                CRGRO048
  
@YEAR DOY   DAS    LI%D   PHAD   PHAN    LI%N   SLLN   SLHN   N%LN   N%HN   LMLN   LMHN   TGON   TGAV
 2016 274     1    0.00   0.00    0.00   0.00   0.00   0.00   0.00   0.00   0.00   0.00  29.21  26.02
 2016 275     2    0.00   0.00    0.00   0.00   0.00   0.00   0.00   0.00   0.00   0.00  30.06  26.16
 2016 276     3    0.00   0.00    0.00   0.00   0.00   0.00   0.00   0.00   0.00   0.00  31.03  26.89
 2016 277     4    0.00   0.00    0.00   0.00   0.00   0.00   0.00   0.00   0.00   0.00  28.14  25.45
 2016 278     5    0.00   0.00    0.00   0.00   0.00   0.00   0.00   0.00   0.00   0.00  30.25  27.00
 2016 279     6    0.00   0.00    0.00   0.00   0.00   0.00   0.00   0.00   0.00   0.00  30.56  27.13
 2016 280     7    0.00   0.00    0.00   0.00   0.00   0.00   0.00   0.00   0.00   0.00  29.06  26.44
 2016 281     8    0.00   0.00    0.00   0.00   0.00   0.00   0.00   0.00   0.00   0.00  26.03  24.91
 2016 282     9    0.00   0.00    0.00   0.00   0.00   0.00   0.00   0.00   0.00   0.00  28.80  25.70
 2016 283    10    0.31   0.16    0.01   0.27   7.29   7.27   4.59   4.58   7.84   7.82  28.27  24.16
 2016 284    11    3.95   1.85    0.10   3.62   7.27   7.25   4.58   4.57   8.15   8.13  25.76  21.82
 2016 285    12    4.66   1.50    0.09   4.59   7.25   7.23   4.57   4.56   8.11   8.09  25.89  22.79
 2016 286    13    4.46   1.76    0.10   4.22   7.22   7.20   4.55   4.54   7.89   7.87  27.40  23.96
 2016 287    14    4.42   1.89    0.10   4.05   7.20   7.18   4.54   4.53   7.74   7.72  28.33  24.96
 2016 288    15    4.46   2.01    0.11   4.02   7.19   7.17   4.53   4.52   7.82   7.80  27.61  24.42
 2016 289    16    5.19   1.46    0.09   5.14   7.17   7.15   4.52   4.51   7.70   7.68  28.37  25.11
 2016 290    17    5.03   1.75    0.10   4.81   7.15   7.13   4.51   4.50   7.70   7.68  28.19  24.80
 2016 291    18    4.86   2.00    0.11   4.43   7.12   7.10   4.50   4.49   7.63   7.61  28.52  24.81
 2016 292    19    5.26   1.84    0.11   4.99   7.07   7.05   4.49   4.48   7.62   7.60  28.23  24.18
 2016 293    20    5.48   2.23    0.12   4.97   6.89   6.87   4.48   4.47   7.50   7.48  27.62  23.57
 2016 294    21    5.96   2.42    0.13   5.43   6.73   6.71   4.48   4.47   7.35   7.33  27.36  23.05
 2016 295    22    6.53   2.54    0.14   6.04   6.59   6.56   4.48   4.47   7.29   7.26  26.59  22.35
 2016 296    23    6.89   3.42    0.18   5.96   6.46   6.43   4.47   4.46   7.67   7.63  21.97  17.52
 2016 297    24    7.43   3.58    0.19   6.47   6.47   6.44   4.48   4.46   7.47   7.44  21.90  15.70
 2016 298    25    7.95   3.74    0.20   6.98   6.52   6.49   4.48   4.47   7.54   7.50  23.79  19.03
 2016 299    26    8.72   3.64    0.20   7.86   6.50   6.47   4.47   4.46   7.42   7.38  24.59  20.05
 2016 300    27    9.29   4.09    0.23   8.49   6.44   6.40   4.46   4.45   7.15   7.10  26.38  22.18
 2016 301    28   10.24   3.74    0.22   9.78   6.33   6.29   4.46   4.45   7.03   6.98  26.42  22.67
 2016 302    29   10.99   3.92    0.23  10.54   6.21   6.16   4.46   4.44   6.89   6.83  26.44  23.28
 2016 303    30   11.82   3.99    0.24  11.46   6.09   6.04   4.46   4.44   6.73   6.67  26.70  23.30
 2016 304    31   12.37   4.63    0.27  11.70   5.98   5.93   4.45   4.43   6.52   6.46  27.52  23.65
 2016 305    32   12.98   5.79    0.32  11.78   5.90   5.84   4.46   4.43   6.52   6.45  26.68  22.57
 2016 306    33   13.98   5.61    0.32  13.06   5.86   5.79   4.46   4.43   6.53   6.45  26.12  21.40
 2016 307    34   15.19   4.93    0.30  14.80   5.83   5.76   4.45   4.42   6.40   6.32  27.06  22.96
 2016 308    35   15.72   5.76    0.34  14.98   5.76   5.68   4.45   4.42   6.41   6.32  26.23  22.61
 2016 309    36   16.53   6.20    0.36  15.67   5.69   5.61   4.45   4.41   6.33   6.23  26.34  21.69
 2016 310    37   17.17   7.30    0.42  15.78   5.67   5.58   4.45   4.41   6.37   6.27  25.62  22.00
 2016 311    38   18.19   7.37    0.43  16.92   5.63   5.54   4.45   4.41   6.31   6.20  25.74  21.65
 2016 312    39   19.61   6.53    0.40  19.10   5.61   5.50   4.45   4.41   6.43   6.31  24.27  20.42
 2016 313    40   19.93   8.23    0.47  18.44   5.57   5.46   4.44   4.40   6.28   6.15  25.36  21.18
 2016 314    41   21.17   7.54    0.45  20.31   5.56   5.45   4.45   4.40   6.26   6.12  25.48  21.16
 2016 315    42   21.70   9.58    0.55  19.78   5.54   5.42   4.44   4.39   6.36   6.21  24.17  19.69
 2016 316    43   22.62   9.65    0.56  20.82   5.57   5.44   4.45   4.39   6.45   6.29  23.64  18.79
 2016 317    44   23.47   9.89    0.57  21.61   5.62   5.48   4.45   4.39   6.41   6.24  24.60  19.17
 2016 318    45   24.36   9.63    0.57  22.77   5.66   5.51   4.45   4.39   6.42   6.24  25.03  19.16
 2016 319    46   26.43   4.67    0.30  26.43   5.69   5.54   4.45   4.39   6.83   6.63  21.25  19.32
 2016 320    47   26.66   7.60    0.49  26.41   5.63   5.47   4.42   4.36   6.86   6.65  20.00  16.65
 2016 321    48   26.25  10.78    0.64  24.40   5.63   5.47   4.44   4.37   6.66   6.45  22.19  17.32
 2016 322    49   26.94  11.87    0.69  24.59   5.67   5.50   4.44   4.37   6.68   6.46  22.40  16.89
 2016 323    50   27.65  11.49    0.68  25.56   5.72   5.55   4.45   4.38   6.62   6.41  23.70  18.86
 2016 324    51   28.36  11.33    0.68  26.51   5.75   5.56   4.45   4.37   6.70   6.47  23.17  18.48
 2016 325    52   28.98  13.21    0.78  26.41   5.77   5.58   4.45   4.37   6.10   5.89  17.47  13.29
 2016 326    53   29.64  12.50    0.77  27.11   5.85   5.65   4.46   4.38   5.22   5.03  17.46  11.46
 2016 327    54   30.22  12.91    0.79  27.75   5.92   5.71   4.47   4.38   6.40   6.17  20.28  13.68
 2016 328    55   31.29  10.69    0.67  30.21   5.98   5.76   4.47   4.38   6.89   6.63  24.01  18.11
 2016 329    56   31.73  10.98    0.68  30.50   5.99   5.77   4.47   4.37   6.79   6.53  25.02  20.31
 2016 330    57   32.04  12.18    0.74  30.15   5.97   5.74   4.46   4.37   6.71   6.44  25.60  21.36
 2016 331    58   33.18  11.20    0.70  32.09   5.94   5.71   4.46   4.36   6.88   6.58  23.74  19.57
 2016 332    59   33.55  12.43    0.77  31.94   5.93   5.68   4.46   4.36   7.00   6.69  22.34  17.19
 2016 333    60   35.01  10.12    0.65  34.54   5.95   5.69   4.46   4.36   6.98   6.67  22.71  18.34
 2016 334    61   34.62  12.58    0.77  32.81   5.93   5.67   4.46   4.35   6.61   6.30  26.19  21.96
 2016 335    62   36.49   9.23    0.60  36.21   5.91   5.64   4.46   4.35   6.69   6.36  25.15  22.16
 2016 336    63   36.35  11.50    0.73  35.32   5.86   5.58   4.45   4.33   6.56   6.23  25.80  22.41
 2016 337    64   36.41  14.46    0.89  34.16   5.82   5.54   4.45   4.33   6.90   6.54  22.04  18.08
 2016 338    65   37.02  14.65    0.90  34.69   5.83   5.54   4.46   4.34   6.83   6.46  22.92  17.66
 2016 339    66   37.59  14.29    0.87  35.32   5.86   5.56   4.46   4.34   6.55   6.19  25.92  21.46
 2016 340    67   39.03  11.26    0.72  38.27   5.84   5.54   4.46   4.33   6.41   6.05  27.17  23.12
 2016 341    68   40.36   6.15    0.41  40.36   5.82   5.50   4.45   4.32   6.57   6.19  25.25  21.97
 2016 342    69   39.12  15.05    0.93  36.85   5.78   5.47   4.43   4.30   6.79   6.39  22.70  19.18
 2016 343    70   40.63  12.05    0.79  40.01   5.78   5.46   4.46   4.33   7.03   6.61  19.92  16.61
 2016 344    71   41.36  10.97    0.72  41.08   5.78   5.46   4.46   4.32   5.60   5.26  15.51  13.13
 2016 345    72   40.32  15.92    1.00  37.89   5.81   5.48   4.46   4.33   6.99   6.56  20.02  14.98
 2016 346    73   41.79  11.86    0.77  41.22   5.85   5.51   4.48   4.34   6.86   6.44  22.82  18.24
 2016 347    74   41.81  12.57    0.81  40.88   5.84   5.50   4.47   4.32   6.61   6.19  25.26  21.38
 2016 348    75   41.65  14.44    0.90  39.75   5.82   5.48   4.46   4.32   6.51   6.10  25.90  21.45
 2016 349    76   42.18  14.42    0.91  40.47   5.81   5.46   4.46   4.32   6.65   6.21  24.49  20.98
 2016 350    77   42.36  15.62    0.98  40.24   5.80   5.44   4.46   4.31   6.83   6.38  22.51  18.40
 2016 351    78   42.57  16.35    1.02  40.08   5.81   5.45   4.46   4.31   6.77   6.31  23.28  17.70
 2016 352    79   43.14  14.92    0.94  41.24   5.84   5.47   4.47   4.32   6.57   6.12  25.58  20.81
 2016 353    80   44.35  11.55    0.76  43.83   5.84   5.47   4.46   4.31   6.37   5.93  27.50  24.03
 2016 354    81   43.78  14.17    0.90  42.12   5.83   5.46   4.45   4.29   6.31   5.87  27.95  23.90
 2016 355    82   45.39   9.52    0.64  45.30   5.82   5.44   4.45   4.29   6.80   6.33  22.97  20.87
 2016 356    83   45.65   8.98    0.60  45.63   5.79   5.42   4.43   4.27   6.73   6.25  18.89  16.65
 2016 357    84   44.04  16.94    1.05  41.49   5.79   5.42   4.42   4.26   6.76   6.27  23.08  18.13
 2016 358    85   44.29  16.87    1.05  41.74   5.81   5.43   4.44   4.28   6.67   6.19  24.23  19.22
 2016 359    86   44.57  16.14    1.00  42.24   5.82   5.44   4.44   4.28   6.49   6.02  26.18  21.23
 2016 360    87   44.86  15.52    0.97  42.83   5.83   5.44   4.43   4.27   6.44   5.98  26.63  22.55
 2016 361    88   45.03  15.46    0.97  43.05   5.82   5.44   4.43   4.27   6.43   5.96  26.69  22.72
 2016 362    89   45.22  15.47    0.97  43.30   5.81   5.43   4.42   4.26   6.44   5.97  26.47  22.29
 2016 363    90   45.20  16.32    1.01  42.90   5.81   5.42   4.42   4.26   6.44   5.96  26.46  21.95
 2016 364    91   45.35  16.97    1.06  43.00   5.81   5.42   4.41   4.25   6.71   6.21  23.77  19.59
 2016 365    92   45.95  15.71    1.01  44.47   5.81   5.43   4.41   4.25   4.30   3.98  13.37   9.65
 2016 366    93   45.59  16.86    1.12  42.83   5.89   5.49   4.44   4.28   5.25   4.86  19.59  12.10
 2017 001    94   46.28  16.00    1.01  44.50   5.94   5.54   4.45   4.29   6.77   6.27  24.75  19.10
 2017 002    95   46.24  16.12    1.01  44.23   5.95   5.55   4.45   4.28   6.53   6.04  27.10  22.49
 2017 003    96   46.92  14.80    0.95  45.68   5.95   5.54   4.44   4.27   6.65   6.15  25.94  22.32
 2017 004    97   46.78  16.40    1.05  45.20   5.94   5.53   4.43   4.26   7.14   6.59  21.08  16.90
 2017 005    98   46.69  17.33    1.09  44.72   5.95   5.54   4.44   4.27   7.15   6.60  21.13  17.01
 2017 006    99   46.54  18.11    1.13  44.14   5.97   5.56   4.44   4.27   6.98   6.45  22.87  17.21
 2017 007   100   48.93   5.16    0.34  48.93   5.99   5.58   4.45   4.27   5.66   5.23  17.96  11.96
 2017 008   101   46.51  14.46    1.00  43.53   5.99   5.58   4.44   4.26   2.22   2.05   9.97   5.75
 2017 009   102   46.85  18.22    1.17  44.32   6.07   5.65   4.48   4.31   4.86   4.50  16.10  10.47
 2017 010   103   47.88  16.89    1.08  46.52   6.13   5.70   4.49   4.31   6.83   6.32  18.57  13.84
 2017 011   104   47.76  17.44    1.10  46.07   6.16   5.73   4.49   4.31   7.36   6.80  21.55  16.61
 2017 012   105   47.10  19.93    1.22  44.35   6.17   5.74   4.48   4.30   7.15   6.61  23.67  18.60
 2017 013   106   49.18  14.37    0.93  48.60   6.19   5.75   4.48   4.30   7.26   6.71  22.80  19.71
 2017 014   107   48.75  15.48    0.99  47.82   6.18   5.75   4.46   4.28   7.13   6.59  23.88  19.78
 2017 015   108   48.98  15.13    0.97  48.22   6.17   5.74   4.46   4.28   7.21   6.66  23.09  19.15
 2017 016   109   49.12  14.62    0.94  48.48   6.16   5.74   4.45   4.27   7.11   6.57  23.94  19.43
 2017 017   110   47.62  18.08    1.12  45.62   6.16   5.74   4.44   4.26   7.00   6.47  24.91  20.33
 2017 018   111   47.55  18.47    1.14  45.54   6.15   5.74   4.44   4.26   7.16   6.62  23.33  18.44
 2017 019   112   47.13  19.37    1.18  44.71   6.15   5.74   4.43   4.26   7.05   6.52  24.34  18.65
 2017 020   113   47.97  17.23    1.07  46.47   6.16   5.75   4.43   4.26   7.05   6.52  24.46  19.60
 2017 021   114   46.95  19.42    1.18  44.48   6.16   5.75   4.42   4.25   6.93   6.41  25.53  20.94
 2017 022   115   49.80   9.79    0.64  49.80   6.15   5.75   4.41   4.24   6.91   6.40  25.61  22.47
 2017 023   116   48.09  17.13    1.08  46.99   6.14   5.74   4.39   4.23   7.31   6.77  19.47  17.57
 2017 024   117   46.30  22.06    1.34  43.42   6.14   5.74   4.40   4.23   7.17   6.64  19.07  15.01
 2017 025   118   46.45  20.87    1.26  43.81   6.16   5.76   4.41   4.25   7.26   6.73  21.95  16.33
 2017 026   119   49.00  14.34    0.91  48.55   6.18   5.78   4.41   4.25   7.17   6.65  23.49  20.61
 2017 027   120   48.70  15.53    0.99  48.16   6.17   5.78   4.40   4.23   6.89   6.39  18.09  15.55
 2017 028   121   49.17  13.55    0.87  48.97   6.17   5.78   4.40   4.23   5.11   4.73  13.54  11.06
 2017 029   122   49.50   8.39    0.54  49.50   6.19   5.80   4.41   4.24   4.74   4.40  12.80  10.26
 2017 030   123   45.80  22.20    1.34  42.91   6.20   5.81   4.41   4.24   5.33   4.94  15.19  10.91
 2017 031   124   45.97  21.50    1.33  43.19   6.27   5.88   4.43   4.27   5.81   5.40  18.21  11.88
 2017 032   125   46.07  22.10    1.34  43.34   6.32   5.92   4.45   4.28   6.93   6.44  20.66  14.06
 2017 033   126   46.64  20.72    1.24  44.45   6.36   5.95   4.46   4.29   7.46   6.93  22.80  17.28
 2017 034   127   46.13  21.90    1.30  43.59   6.35   5.95   4.45   4.28   7.42   6.90  23.08  18.04
 2017 035   128   46.28  21.29    1.27  44.01   6.35   5.95   4.44   4.28   7.52   6.99  22.19  17.82
 2017 036   129   47.08  19.49    1.18  45.53   6.35   5.96   4.44   4.27   7.56   7.03  21.77  17.71
 2017 037   130   45.85  21.28    1.26  43.56   6.35   5.96   4.43   4.27   7.29   6.79  24.16  18.49
 2017 038   131   46.53  19.39    1.16  44.81   6.34   5.96   4.44   4.27   7.15   6.66  25.47  20.86
 2017 039   132   47.13  18.42    1.12  45.90   6.34   5.96   4.43   4.27   7.29   6.79  24.14  20.52
 2017 040   133   45.54  21.09    1.25  43.46   6.33   5.95   4.42   4.26   7.34   6.85  23.58  19.30
 2017 041   134   44.67  23.65    1.41  42.17   6.33   5.96   4.42   4.26   7.58   7.07  20.19  15.01
 2017 042   135   44.75  23.00    1.35  42.34   6.37   5.99   4.44   4.28   7.33   6.85  23.54  17.20
 2017 043   136   44.73  23.08    1.35  42.41   6.39   6.01   4.44   4.28   7.45   6.96  23.17  17.58
 2017 044   137   45.62  20.66    1.22  43.83   6.40   6.02   4.44   4.28   7.30   6.82  24.66  19.92
 2017 045   138   47.28  18.00    1.09  46.40   6.39   6.02   4.43   4.28   7.34   6.86  24.21  20.09
 2017 046   139   47.43  17.51    1.07  46.69   6.39   6.02   4.42   4.27   7.35   6.87  24.11  21.05
 2017 047   140   43.91  23.99    1.41  41.69   6.38   6.02   4.41   4.26   6.68   6.24  17.71  12.99
 2017 048   141   43.89  22.52    1.37  41.70   6.43   6.06   4.41   4.26   6.09   5.69  20.85  13.10
 2017 049   142   48.94  13.51    0.83  48.89   6.46   6.09   4.41   4.26   7.69   7.19  21.54  16.30
 2017 050   143   45.46  20.60    1.21  43.97   6.46   6.09   4.40   4.25   7.38   6.90  24.44  20.09
 2017 051   144   43.68  23.09    1.33  41.66   6.45   6.09   4.38   4.23   7.28   6.80  25.31  19.78
 2017 052   145   48.13  15.32    0.93  47.90   6.45   6.09   4.37   4.22   7.43   6.95  23.89  19.99
 2017 053   146   48.47   9.13    0.56  48.47   6.45   6.09   4.35   4.20   7.76   7.25  20.75  17.67
 2017 054   147   47.62  16.03    0.97  47.32   6.44   6.09   4.33   4.18   7.43   6.95  23.62  18.59
 2017 055   148   44.15  20.79    1.21  42.58   6.44   6.09   4.31   4.17   7.09   6.63  26.54  22.87
 2017 056   149   44.23  21.08    1.23  42.76   6.43   6.09   4.30   4.15   7.36   6.87  24.11  20.53
 2017 057   150   42.18  24.43    1.40  40.26   6.43   6.09   4.28   4.14   7.39   6.91  23.64  18.78
 2017 058   151   43.80  20.83    1.20  42.30   6.45   6.11   4.27   4.13   7.05   6.58  26.85  21.43
 2017 059   152   44.71  19.35    1.12  43.55   6.45   6.11   4.25   4.11   6.90   6.44  28.12  23.56
 2017 060   153   42.55  22.08    1.25  40.84   6.45   6.11   4.24   4.10   6.93   6.47  27.78  22.94
 2017 061   154   42.44  22.86    1.30  40.74   6.46   6.12   4.23   4.09   7.17   6.69  25.71  21.50
 2017 062   155   41.95  24.37    1.39  40.22   6.46   6.13   4.21   4.07   7.53   7.03  22.34  18.16
 2017 063   156   41.76  24.59    1.41  40.03   6.48   6.14   4.20   4.06   7.49   6.99  21.90  16.08
 2017 064   157   43.51  22.36    1.29  42.11   6.52   6.18   4.20   4.06   7.58   7.07  22.40  18.70
 2017 065   158   45.10  20.25    1.18  44.23   6.52   6.19   4.18   4.04   7.56   7.04  22.54  18.10
 2017 066   159   43.96  21.15    1.22  42.78   6.52   6.19   4.16   4.03   7.35   6.85  24.28  18.72
 2017 067   160   44.32  20.28    1.17  43.30   6.52   6.19   4.15   4.01   7.18   6.69  25.73  20.66
 2017 068   161   43.67  20.63    1.18  42.51   6.52   6.19   4.13   4.00   7.04   6.56  26.77  21.34
 2017 069   162   41.31  23.86    1.34  39.73   6.52   6.20   4.12   3.98   7.31   6.81  24.30  20.30
 2017 070   163   40.70  24.08    1.34  39.10   6.52   6.20   4.10   3.97   7.02   6.54  26.69  21.47
 2017 071   164   46.34  15.31    0.91  46.31   6.52   6.20   4.08   3.95   7.26   6.76  24.44  21.11
 2017 072   165   46.44   9.95    0.59  46.44   6.51   6.20   4.06   3.93   7.44   6.93  22.51  19.70
 2017 073   166   41.56  23.68    1.34  40.15   6.51   6.20   4.04   3.91   7.29   6.79  18.82  16.65
 2017 074   167   40.21  23.67    1.36  38.67   6.53   6.22   4.03   3.90   4.64   4.32  14.09   9.59
 2017 075   168   40.25  22.63    1.37  38.73   6.69   6.37   4.06   3.93   4.44   4.14  16.07   9.66
 2017 076   169   41.41  24.55    1.41  39.96   6.79   6.47   4.08   3.94   7.13   6.64  19.86  13.42
 2017 077   170   41.02  26.16    1.47  39.57   6.88   6.55   4.09   3.95   7.82   7.29  21.91  15.96

*DSSAT Cropping System Model Ver. 4.8.5.017 pre-release  JUN 28, 2025 01:30:15

*RUN   4        : Radiance                  CRGRO048 UFBA1701    1
 MODEL          : CRGRO048 - Strawberry
 EXPERIMENT     : UFBA1701 SR 2017 BALM STRAWBERRY VARIETY TRIAL
 DATA PATH      : /data/Strawberry/
 TREATMENT  1   : Radiance                  CRGRO048
  
@YEAR DOY   DAS    LI%D   PHAD   PHAN    LI%N   SLLN   SLHN   N%LN   N%HN   LMLN   LMHN   TGON   TGAV
 2017 274     1    0.00   0.00    0.00   0.00   0.00   0.00   0.00   0.00   0.00   0.00  30.90  27.29
 2017 275     2    0.00   0.00    0.00   0.00   0.00   0.00   0.00   0.00   0.00   0.00  28.58  25.53
 2017 276     3    0.00   0.00    0.00   0.00   0.00   0.00   0.00   0.00   0.00   0.00  27.48  24.85
 2017 277     4    0.00   0.00    0.00   0.00   0.00   0.00   0.00   0.00   0.00   0.00  28.31  25.76
 2017 278     5    0.00   0.00    0.00   0.00   0.00   0.00   0.00   0.00   0.00   0.00  27.04  24.94
 2017 279     6    0.00   0.00    0.00   0.00   0.00   0.00   0.00   0.00   0.00   0.00  30.38  27.20
 2017 280     7    0.00   0.00    0.00   0.00   0.00   0.00   0.00   0.00   0.00   0.00  31.77  28.76
 2017 281     8    0.00   0.00    0.00   0.00   0.00   0.00   0.00   0.00   0.00   0.00  31.05  27.84
 2017 282     9    0.00   0.00    0.00   0.00   0.00   0.00   0.00   0.00   0.00   0.00  31.76  27.99
 2017 283    10    0.33   0.15    0.01   0.30   7.29   7.27   4.59   4.58   5.74   5.72  31.43  27.80
 2017 284    11    4.15   1.54    0.09   3.97   7.27   7.25   4.58   4.57   5.88   5.86  29.98  26.29
 2017 285    12    4.12   1.66    0.09   3.85   7.26   7.24   4.57   4.56   5.94   5.93  29.23  24.88
 2017 286    13    4.46   1.56    0.09   4.30   7.24   7.22   4.56   4.55   5.87   5.86  29.77  26.47
 2017 287    14    4.63   1.57    0.09   4.48   7.23   7.21   4.55   4.54   5.93   5.91  29.11  25.71
 2017 288    15    4.65   1.63    0.09   4.43   7.21   7.19   4.54   4.53   5.79   5.78  30.31  26.35
 2017 289    16    4.48   1.83    0.10   4.07   7.19   7.17   4.53   4.52   5.78   5.77  30.26  26.41
 2017 290    17    5.27   1.03    0.06   5.27   7.18   7.16   4.52   4.51   6.28   6.26  25.22  23.39
 2017 291    18    5.03   1.65    0.10   4.85   7.15   7.13   4.50   4.50   6.00   5.98  27.79  24.39
 2017 292    19    4.91   1.87    0.10   4.52   7.10   7.08   4.50   4.49   5.85   5.84  28.83  24.78
 2017 293    20    5.07   1.92    0.11   4.68   7.05   7.03   4.49   4.48   5.86   5.84  28.34  24.88
 2017 294    21    5.65   1.93    0.11   5.32   6.90   6.88   4.49   4.48   5.71   5.70  28.54  24.74
 2017 295    22    6.28   1.83    0.11   6.11   6.75   6.73   4.48   4.47   5.45   5.44  29.99  26.30
 2017 296    23    6.86   1.68    0.10   6.80   6.64   6.62   4.48   4.47   5.41   5.39  29.57  26.40
 2017 297    24    7.08   2.13    0.13   6.90   6.54   6.51   4.47   4.46   5.73   5.71  25.04  21.29
 2017 298    25    7.04   3.18    0.17   6.15   6.39   6.37   4.46   4.45   5.97   5.94  19.82  15.31
 2017 299    26    7.49   3.46    0.19   6.50   6.44   6.41   4.48   4.46   5.98   5.95  20.29  15.20
 2017 300    27    7.99   3.53    0.19   7.01   6.49   6.45   4.48   4.46   5.78   5.75  23.89  18.29
 2017 301    28    9.37   1.72    0.11   9.37   6.49   6.46   4.47   4.46   5.78   5.75  23.96  19.94
 2017 302    29    9.10   3.87    0.22   8.38   6.37   6.33   4.44   4.43   5.21   5.18  17.23  13.52
 2017 303    30    9.57   4.34    0.24   8.61   6.44   6.40   4.48   4.46   5.20   5.17  17.85  12.94
 2017 304    31   10.12   4.48    0.25   9.15   6.51   6.47   4.48   4.47   5.72   5.68  20.89  14.65
 2017 305    32   10.77   4.32    0.25  10.02   6.55   6.51   4.48   4.46   5.85   5.81  23.84  18.77
 2017 306    33   11.34   4.74    0.27  10.38   6.52   6.47   4.47   4.45   5.68   5.63  25.45  20.08
 2017 307    34   12.25   4.26    0.25  11.75   6.49   6.44   4.47   4.45   5.62   5.57  25.89  21.48
 2017 308    35   12.71   5.15    0.29  11.70   6.39   6.33   4.46   4.43   5.51   5.46  26.02  21.51
 2017 309    36   13.45   5.52    0.31  12.37   6.31   6.25   4.46   4.43   5.53   5.47  25.08  20.50
 2017 310    37   14.64   4.51    0.27  14.30   6.26   6.19   4.46   4.43   5.34   5.28  26.79  23.66
 2017 311    38   14.90   6.02    0.34  13.65   6.16   6.08   4.45   4.42   5.22   5.16  27.08  22.72
 2017 312    39   15.72   6.35    0.36  14.41   6.09   6.01   4.45   4.42   5.19   5.12  26.85  22.29
 2017 313    40   16.58   6.31    0.36  15.41   6.04   5.95   4.45   4.42   5.09   5.01  27.51  22.71
 2017 314    41   18.36   2.69    0.17  18.36   5.99   5.90   4.45   4.41   5.58   5.49  20.89  18.98
 2017 315    42   17.97   6.70    0.39  16.85   5.89   5.79   4.42   4.38   5.10   5.01  25.73  21.01
 2017 316    43   19.72   3.55    0.23  19.72   5.87   5.77   4.46   4.42   5.29   5.20  23.14  21.68
 2017 317    44   19.48   6.82    0.40  18.46   5.76   5.66   4.44   4.39   4.93   4.83  26.60  23.21
 2017 318    45   20.27   7.67    0.45  18.90   5.71   5.60   4.46   4.41   5.02   4.91  24.83  21.17
 2017 319    46   21.13   8.83    0.50  19.21   5.67   5.55   4.45   4.40   5.12   5.00  23.08  18.68
 2017 320    47   21.98   8.48    0.50  20.50   5.70   5.57   4.46   4.40   5.18   5.06  22.66  19.07
 2017 321    48   22.75   9.31    0.54  20.81   5.69   5.56   4.45   4.39   5.15   5.02  22.93  17.95
 2017 322    49   23.52   9.28    0.54  21.70   5.73   5.59   4.45   4.40   5.12   4.99  23.76  18.35
 2017 323    50   24.64   7.80    0.48  24.00   5.77   5.62   4.45   4.39   5.12   4.98  24.21  19.08
 2017 324    51   24.86   9.87    0.59  22.90   5.77   5.62   4.45   4.38   5.10   4.96  21.97  15.63
 2017 325    52   26.75   4.68    0.30  26.75   5.82   5.66   4.46   4.39   5.36   5.20  21.75  18.84
 2017 326    53   26.18   9.00    0.55  24.99   5.77   5.61   4.43   4.36   5.06   4.91  24.93  20.85
 2017 327    54   27.97   5.14    0.34  27.97   5.74   5.57   4.45   4.38   5.18   5.02  23.13  21.38
 2017 328    55   28.55   5.41    0.35  28.55   5.67   5.50   4.43   4.36   5.34   5.16  20.11  18.33
 2017 329    56   27.84  11.19    0.67  25.62   5.62   5.44   4.42   4.35   5.17   4.99  21.47  16.19
 2017 330    57   28.56  10.86    0.66  26.72   5.67   5.49   4.45   4.37   5.22   5.04  21.74  17.40
 2017 331    58   29.20  11.01    0.67  27.36   5.70   5.51   4.45   4.37   5.23   5.04  21.86  16.58
 2017 332    59   29.82  10.95    0.66  27.90   5.74   5.54   4.45   4.37   4.97   4.79  25.78  21.05
 2017 333    60   30.58  10.76    0.65  28.90   5.73   5.53   4.45   4.36   4.96   4.76  25.92  22.23
 2017 334    61   31.28  11.30    0.68  29.44   5.70   5.48   4.45   4.36   4.99   4.78  25.17  21.07
 2017 335    62   31.96  11.92    0.72  29.89   5.68   5.46   4.45   4.35   5.00   4.79  24.79  19.92
 2017 336    63   32.70  11.68    0.71  30.86   5.70   5.46   4.45   4.35   4.98   4.76  25.17  19.80
 2017 337    64   34.01   9.80    0.63  33.38   5.71   5.47   4.45   4.35   5.04   4.81  24.60  19.94
 2017 338    65   34.35  10.59    0.67  33.46   5.70   5.45   4.44   4.34   5.09   4.85  23.90  20.05
 2017 339    66   34.39  12.51    0.76  32.29   5.68   5.43   4.44   4.34   4.94   4.70  25.55  21.29
 2017 340    67   35.26  11.84    0.73  33.69   5.67   5.41   4.45   4.34   4.93   4.68  25.63  21.05
 2017 341    68   37.06   8.07    0.53  36.94   5.67   5.39   4.44   4.33   5.01   4.75  24.40  21.52
 2017 342    69   37.23   9.39    0.61  36.86   5.62   5.35   4.43   4.31   4.80   4.54  26.72  23.41
 2017 343    70   38.27   3.99    0.27  38.27   5.59   5.31   4.43   4.31   4.52   4.27  18.20  12.95
 2017 344    71   37.05  11.92    0.79  34.37   5.59   5.30   4.43   4.31   2.44   2.31  12.25   7.87
 2017 345    72   37.40  12.15    0.82  34.73   5.68   5.39   4.46   4.34   2.80   2.64  14.21   8.83
 2017 346    73   38.00  12.73    0.82  36.32   5.76   5.46   4.47   4.34   4.14   3.91  18.16  11.91
 2017 347    74   38.10  13.71    0.88  35.45   5.80   5.49   4.47   4.34   3.29   3.11  14.53   9.65
 2017 348    75   39.18  11.92    0.79  38.20   5.88   5.57   4.48   4.35   4.33   4.08  18.91  12.26
 2017 349    76   39.25  13.26    0.84  37.79   5.91   5.59   4.48   4.35   5.46   5.14  21.46  17.12
 2017 350    77   39.36  14.44    0.90  37.28   5.92   5.59   4.48   4.34   5.47   5.14  21.57  16.92
 2017 351    78   39.85  14.21    0.88  37.85   5.94   5.60   4.48   4.34   5.32   5.00  23.63  18.45
 2017 352    79   40.36  13.87    0.86  38.48   5.95   5.60   4.48   4.34   5.18   4.86  25.51  21.11
 2017 353    80   40.87  13.80    0.86  39.08   5.94   5.58   4.48   4.33   5.13   4.80  25.96  21.61
 2017 354    81   41.79  13.04    0.83  40.66   5.93   5.56   4.48   4.32   5.30   4.95  23.77  19.93
 2017 355    82   42.48  12.38    0.80  41.65   5.92   5.55   4.48   4.32   5.23   4.88  24.51  21.20
 2017 356    83   42.72  13.17    0.85  41.67   5.90   5.52   4.47   4.31   5.31   4.94  23.35  19.48
 2017 357    84   43.16  13.23    0.85  42.16   5.90   5.51   4.47   4.31   5.32   4.94  23.18  19.04
 2017 358    85   42.96  14.71    0.92  41.19   5.90   5.51   4.47   4.31   5.24   4.87  24.15  19.47
 2017 359    86   43.12  15.90    1.00  41.02   5.91   5.51   4.48   4.31   5.52   5.12  20.67  16.83
 2017 360    87   45.14  10.73    0.71  44.94   5.93   5.53   4.48   4.32   5.53   5.13  20.79  16.18
 2017 361    88   43.97  14.81    0.93  42.35   5.94   5.53   4.48   4.31   5.29   4.90  23.97  19.33
 2017 362    89   44.64  14.23    0.91  43.50   5.94   5.53   4.48   4.31   5.46   5.05  21.91  18.61
 2017 363    90   45.88  11.61    0.77  45.63   5.94   5.53   4.48   4.30   4.85   4.49  17.00  14.46
 2017 364    91   45.02  14.87    0.96  43.80   5.96   5.54   4.48   4.30   4.71   4.35  17.37  12.73
 2017 365    92   44.54  16.44    1.05  42.36   5.99   5.57   4.49   4.32   4.82   4.46  18.74  12.92
 2018 001    93   44.78  16.56    1.06  42.61   6.03   5.60   4.50   4.32   4.85   4.49  18.74  12.92

*DSSAT Cropping System Model Ver. 4.8.5.017 pre-release  JUN 28, 2025 01:30:23

*RUN   5        : Brilliance                CRGRO048 UFBA1701    2
 MODEL          : CRGRO048 - Strawberry
 EXPERIMENT     : UFBA1701 SR 2017 BALM STRAWBERRY VARIETY TRIAL
 DATA PATH      : /data/Strawberry/
 TREATMENT  2   : Brilliance                CRGRO048
  
@YEAR DOY   DAS    LI%D   PHAD   PHAN    LI%N   SLLN   SLHN   N%LN   N%HN   LMLN   LMHN   TGON   TGAV
 2017 274     1    0.00   0.00    0.00   0.00   0.00   0.00   0.00   0.00   0.00   0.00  30.90  27.29
 2017 275     2    0.00   0.00    0.00   0.00   0.00   0.00   0.00   0.00   0.00   0.00  28.58  25.53
 2017 276     3    0.00   0.00    0.00   0.00   0.00   0.00   0.00   0.00   0.00   0.00  27.48  24.85
 2017 277     4    0.00   0.00    0.00   0.00   0.00   0.00   0.00   0.00   0.00   0.00  28.31  25.76
 2017 278     5    0.00   0.00    0.00   0.00   0.00   0.00   0.00   0.00   0.00   0.00  27.04  24.94
 2017 279     6    0.00   0.00    0.00   0.00   0.00   0.00   0.00   0.00   0.00   0.00  30.38  27.20
 2017 280     7    0.00   0.00    0.00   0.00   0.00   0.00   0.00   0.00   0.00   0.00  31.77  28.76
 2017 281     8    0.00   0.00    0.00   0.00   0.00   0.00   0.00   0.00   0.00   0.00  31.05  27.84
 2017 282     9    0.00   0.00    0.00   0.00   0.00   0.00   0.00   0.00   0.00   0.00  31.76  27.99
 2017 283    10    0.33   0.16    0.01   0.30   7.29   7.27   4.59   4.58   7.44   7.42  31.43  27.80
 2017 284    11    4.36   1.63    0.09   4.18   7.27   7.25   4.58   4.57   7.62   7.60  29.98  26.29
 2017 285    12    4.33   1.77    0.10   4.05   7.26   7.24   4.57   4.56   7.70   7.68  29.23  24.88
 2017 286    13    4.67   1.64    0.09   4.50   7.24   7.22   4.56   4.55   7.61   7.59  29.77  26.47
 2017 287    14    4.84   1.65    0.10   4.68   7.22   7.21   4.55   4.54   7.68   7.66  29.11  25.71
 2017 288    15    4.85   1.71    0.10   4.63   7.21   7.19   4.54   4.53   7.51   7.49  30.31  26.35
 2017 289    16    4.68   1.94    0.11   4.27   7.19   7.17   4.53   4.52   7.50   7.48  30.26  26.41
 2017 290    17    5.46   1.07    0.07   5.46   7.18   7.16   4.52   4.51   8.13   8.11  25.22  23.39
 2017 291    18    5.22   1.73    0.10   5.04   7.15   7.13   4.50   4.50   7.77   7.75  27.79  24.39
 2017 292    19    5.13   1.98    0.11   4.72   7.10   7.08   4.50   4.49   7.59   7.57  28.83  24.78
 2017 293    20    5.29   2.02    0.11   4.87   7.05   7.03   4.49   4.48   7.60   7.57  28.34  24.88
 2017 294    21    5.86   2.03    0.12   5.54   6.89   6.87   4.49   4.48   7.40   7.38  28.54  24.74
 2017 295    22    6.52   1.92    0.11   6.35   6.74   6.71   4.48   4.47   7.06   7.03  29.99  26.30
 2017 296    23    7.12   1.76    0.11   7.06   6.63   6.60   4.48   4.47   6.99   6.97  29.57  26.40
 2017 297    24    7.37   2.25    0.13   7.19   6.52   6.49   4.47   4.46   7.41   7.38  25.04  21.29
 2017 298    25    7.48   3.48    0.19   6.78   6.37   6.34   4.46   4.45   7.71   7.67  19.82  15.31
 2017 299    26    7.99   3.81    0.21   7.20   6.42   6.39   4.48   4.47   7.72   7.69  20.29  15.20
 2017 300    27    8.55   3.87    0.21   7.76   6.47   6.44   4.48   4.47   7.48   7.44  23.89  18.29
 2017 301    28    9.85   1.82    0.11   9.85   6.48   6.44   4.47   4.46   7.48   7.44  23.96  19.94
 2017 302    29    9.59   4.24    0.24   8.82   6.36   6.32   4.45   4.43   6.75   6.70  17.23  13.52
 2017 303    30   10.12   4.81    0.27   9.10   6.43   6.39   4.49   4.47   6.73   6.69  17.85  12.94
 2017 304    31   10.74   4.97    0.28   9.70   6.51   6.46   4.49   4.47   7.41   7.36  20.89  14.65
 2017 305    32   11.46   4.74    0.27  10.66   6.56   6.51   4.49   4.47   7.59   7.53  23.84  18.77
 2017 306    33   12.10   5.23    0.29  11.07   6.52   6.47   4.48   4.45   7.36   7.30  25.45  20.08
 2017 307    34   13.09   4.67    0.28  12.56   6.49   6.43   4.47   4.45   7.28   7.21  25.89  21.48
 2017 308    35   13.62   5.70    0.32  12.54   6.38   6.32   4.46   4.44   7.14   7.07  26.02  21.51
 2017 309    36   14.45   6.12    0.35  13.28   6.31   6.24   4.47   4.44   7.16   7.08  25.08  20.50
 2017 310    37   15.75   4.96    0.30  15.38   6.26   6.18   4.46   4.43   6.91   6.83  26.79  23.66
 2017 311    38   16.07   6.71    0.38  14.72   6.15   6.07   4.46   4.42   6.76   6.67  27.08  22.72
 2017 312    39   16.99   7.09    0.40  15.57   6.08   5.99   4.46   4.42   6.71   6.61  26.85  22.29
 2017 313    40   17.95   7.05    0.41  16.69   6.03   5.94   4.46   4.42   6.58   6.48  27.51  22.71
 2017 314    41   19.88   2.94    0.19  19.88   5.98   5.88   4.46   4.42   7.22   7.09  20.89  18.98
 2017 315    42   19.49   7.48    0.44  18.27   5.88   5.78   4.43   4.38   6.60   6.48  25.73  21.01
 2017 316    43   21.39   3.90    0.25  21.39   5.86   5.75   4.46   4.42   6.85   6.71  23.14  21.68
 2017 317    44   21.15   7.62    0.46  20.05   5.75   5.64   4.44   4.40   6.38   6.24  26.60  23.21
 2017 318    45   22.04   8.60    0.51  20.55   5.70   5.58   4.46   4.41   6.49   6.35  24.83  21.17
 2017 319    46   23.00   9.99    0.58  20.92   5.66   5.53   4.46   4.41   6.62   6.46  23.08  18.68
 2017 320    47   23.94   9.53    0.57  22.33   5.69   5.56   4.46   4.41   6.70   6.53  22.66  19.07
 2017 321    48   24.77  10.52    0.61  22.68   5.69   5.54   4.46   4.40   6.67   6.49  22.93  17.95
 2017 322    49   25.59  10.46    0.62  23.65   5.73   5.58   4.46   4.40   6.64   6.45  23.76  18.35
 2017 323    50   26.83   8.69    0.54  26.13   5.77   5.61   4.46   4.40   6.64   6.44  24.21  19.08
 2017 324    51   27.03  11.17    0.67  24.94   5.77   5.60   4.46   4.39   6.61   6.41  21.97  15.63
 2017 325    52   29.07   5.15    0.34  29.07   5.82   5.65   4.47   4.40   6.94   6.73  21.75  18.84
 2017 326    53   28.41  10.02    0.61  27.13   5.78   5.60   4.44   4.37   6.57   6.36  24.93  20.85
 2017 327    54   30.26   5.62    0.37  30.26   5.75   5.57   4.46   4.38   6.72   6.50  23.13  21.38
 2017 328    55   30.80   5.90    0.39  30.80   5.69   5.50   4.44   4.36   6.94   6.69  20.11  18.33
 2017 329    56   30.01  12.55    0.75  27.65   5.64   5.45   4.43   4.35   6.73   6.48  21.47  16.19
 2017 330    57   30.79  12.09    0.73  28.82   5.69   5.50   4.46   4.38   6.79   6.54  21.74  17.40
 2017 331    58   31.47  12.26    0.75  29.50   5.72   5.52   4.46   4.37   6.80   6.54  21.86  16.58
 2017 332    59   32.14  12.17    0.73  30.09   5.76   5.55   4.46   4.37   6.47   6.21  25.78  21.05
 2017 333    60   32.94  11.91    0.73  31.15   5.75   5.53   4.46   4.37   6.45   6.18  25.92  22.23
 2017 334    61   33.68  12.52    0.76  31.71   5.72   5.49   4.46   4.36   6.49   6.21  25.17  21.07
 2017 335    62   34.38  13.24    0.80  32.17   5.70   5.46   4.46   4.36   6.51   6.21  24.79  19.92
 2017 336    63   35.14  12.92    0.79  33.18   5.72   5.47   4.46   4.36   6.48   6.18  25.17  19.80
 2017 337    64   36.46  10.70    0.69  35.80   5.73   5.47   4.46   4.35   6.56   6.24  24.60  19.94
 2017 338    65   36.79  11.57    0.74  35.84   5.72   5.46   4.46   4.35   6.61   6.29  23.90  20.05
 2017 339    66   36.83  13.81    0.84  34.59   5.70   5.43   4.46   4.34   6.43   6.10  25.55  21.29
 2017 340    67   37.70  12.98    0.81  36.02   5.69   5.41   4.46   4.34   6.41   6.07  25.63  21.05
 2017 341    68   39.48   8.69    0.57  39.35   5.69   5.40   4.46   4.34   6.52   6.17  24.40  21.52
 2017 342    69   39.59  10.13    0.66  39.20   5.65   5.36   4.44   4.32   6.25   5.90  26.72  23.41
 2017 343    70   40.58   4.26    0.28  40.58   5.62   5.32   4.44   4.32   5.89   5.55  18.20  12.95
 2017 344    71   39.41  13.75    0.91  36.54   5.61   5.32   4.44   4.31   3.19   3.00  12.25   7.87
 2017 345    72   39.82  13.90    0.94  36.97   5.71   5.41   4.48   4.35   3.65   3.45  14.21   8.83
 2017 346    73   40.43  14.09    0.91  38.64   5.80   5.48   4.48   4.35   5.41   5.10  18.16  11.91
 2017 347    74   40.61  15.59    1.00  37.77   5.84   5.52   4.49   4.35   4.30   4.05  14.53   9.65
 2017 348    75   41.68  13.07    0.86  40.63   5.92   5.59   4.50   4.36   5.65   5.32  18.91  12.26
 2017 349    76   41.79  14.44    0.92  40.22   5.95   5.61   4.50   4.36   7.13   6.70  21.46  17.12
 2017 350    77   41.91  15.82    0.99  39.68   5.96   5.62   4.49   4.35   7.13   6.69  21.57  16.92
 2017 351    78   42.41  15.52    0.97  40.26   5.98   5.62   4.50   4.35   6.94   6.51  23.63  18.45
 2017 352    79   42.91  15.10    0.95  40.89   5.99   5.63   4.50   4.35   6.76   6.32  25.51  21.11
 2017 353    80   43.42  15.00    0.94  41.50   5.97   5.60   4.50   4.34   6.69   6.25  25.96  21.61
 2017 354    81   44.29  14.07    0.91  43.08   5.96   5.59   4.50   4.34   6.91   6.45  23.77  19.93
 2017 355    82   44.95  13.31    0.86  44.07   5.95   5.57   4.49   4.34   6.82   6.36  24.51  21.20
 2017 356    83   45.15  14.16    0.91  44.03   5.93   5.55   4.49   4.33   6.92   6.43  23.35  19.48
 2017 357    84   45.53  14.19    0.92  44.47   5.93   5.54   4.49   4.32   6.93   6.44  23.18  19.04
 2017 358    85   45.34  15.88    1.00  43.44   5.93   5.53   4.48   4.32   6.83   6.34  24.15  19.47
 2017 359    86   45.47  17.22    1.09  43.23   5.93   5.53   4.48   4.32   7.18   6.67  20.67  16.83
 2017 360    87   47.31  11.36    0.75  47.10   5.95   5.55   4.49   4.32   7.19   6.67  20.79  16.18
 2017 361    88   46.15  15.86    1.01  44.41   5.95   5.55   4.48   4.31   6.87   6.37  23.97  19.33
 2017 362    89   46.67  15.12    0.98  45.47   5.95   5.55   4.48   4.31   7.09   6.57  21.91  18.61
 2017 363    90   47.72  12.22    0.81  47.47   5.95   5.54   4.46   4.30   6.29   5.83  17.00  14.46
 2017 364    91   46.84  15.81    1.02  45.54   5.95   5.55   4.46   4.29   6.10   5.65  17.37  12.73
 2017 365    92   46.43  17.72    1.13  44.08   5.98   5.57   4.47   4.30   6.24   5.78  18.74  12.92
 2018 001    93   46.66  17.83    1.14  44.31   6.02   5.60   4.48   4.31   6.28   5.81  18.74  12.92

*DSSAT Cropping System Model Ver. 4.8.5.017 pre-release  JUN 28, 2025 01:30:37

*RUN   6        : Radiance                  CRGRO048 UFWM1401    1
 MODEL          : CRGRO048 - Strawberry
 EXPERIMENT     : UFWM1401 SR 2014 WIMAUMA STRAWBERRY GROWTH AND YIELD ANALYSIS
 DATA PATH      : /data/Strawberry/
 TREATMENT  1   : Radiance                  CRGRO048
  
@YEAR DOY   DAS    LI%D   PHAD   PHAN    LI%N   SLLN   SLHN   N%LN   N%HN   LMLN   LMHN   TGON   TGAV
 2014 274     1    0.00   0.00    0.00   0.00   0.00   0.00   0.00   0.00   0.00   0.00  27.53  24.96
 2014 275     2    0.00   0.00    0.00   0.00   0.00   0.00   0.00   0.00   0.00   0.00  28.74  25.40
 2014 276     3    0.00   0.00    0.00   0.00   0.00   0.00   0.00   0.00   0.00   0.00  28.43  25.10
 2014 277     4    0.00   0.00    0.00   0.00   0.00   0.00   0.00   0.00   0.00   0.00  25.11  21.15
 2014 278     5    0.00   0.00    0.00   0.00   0.00   0.00   0.00   0.00   0.00   0.00  21.83  17.74
 2014 279     6    0.00   0.00    0.00   0.00   0.00   0.00   0.00   0.00   0.00   0.00  23.83  19.35
 2014 280     7    0.00   0.00    0.00   0.00   0.00   0.00   0.00   0.00   0.00   0.00  25.99  22.64
 2014 281     8    0.00   0.00    0.00   0.00   0.00   0.00   0.00   0.00   0.00   0.00  27.67  23.90
 2014 282     9    0.00   0.00    0.00   0.00   0.00   0.00   0.00   0.00   0.00   0.00  27.20  23.50
 2014 283    10    0.28   0.16    0.01   0.25   7.29   7.27   4.59   4.58   6.10   6.09  27.39  23.32
 2014 284    11    3.46   1.77    0.09   3.05   7.27   7.25   4.58   4.57   6.04   6.02  27.87  23.76
 2014 285    12    3.66   1.82    0.10   3.24   7.25   7.23   4.57   4.56   6.07   6.05  27.43  23.47
 2014 286    13    3.83   1.85    0.10   3.41   7.23   7.21   4.56   4.55   6.04   6.03  27.52  23.73
 2014 287    14    4.85   0.94    0.06   4.85   7.22   7.20   4.54   4.54   6.19   6.17  25.91  23.65
 2014 288    15    4.43   1.82    0.10   4.13   7.18   7.16   4.53   4.52   6.35   6.34  23.98  20.17
 2014 289    16    4.24   2.15    0.11   3.70   7.17   7.15   4.52   4.51   6.44   6.42  22.96  19.11
 2014 290    17    4.31   2.22    0.12   3.73   7.15   7.13   4.50   4.49   6.41   6.39  23.15  18.37
 2014 291    18    4.40   2.22    0.12   3.82   7.14   7.13   4.49   4.48   6.37   6.35  23.46  18.34
 2014 292    19    4.58   2.13    0.11   4.04   7.13   7.11   4.48   4.47   6.27   6.25  24.36  19.62
 2014 293    20    4.81   2.04    0.11   4.34   7.10   7.08   4.46   4.46   6.19   6.17  24.90  20.44
 2014 294    21    5.81   1.58    0.09   5.75   6.97   6.95   4.46   4.45   6.05   6.03  25.17  22.17
 2014 295    22    5.55   2.38    0.13   4.96   6.76   6.74   4.45   4.44   5.81   5.79  25.73  22.11
 2014 296    23    6.00   2.85    0.15   5.19   6.61   6.59   4.46   4.45   5.85   5.83  23.94  19.97
 2014 297    24    6.51   3.05    0.16   5.66   6.53   6.51   4.46   4.45   5.86   5.83  23.05  19.12
 2014 298    25    7.00   3.39    0.18   6.05   6.49   6.46   4.45   4.44   5.85   5.82  22.63  18.50
 2014 299    26    7.51   3.62    0.19   6.49   6.47   6.44   4.46   4.44   5.79   5.76  22.95  17.07
 2014 300    27    8.02   3.80    0.20   6.96   6.51   6.47   4.46   4.45   5.76   5.73  23.93  18.56
 2014 301    28    8.68   3.94    0.21   7.51   6.52   6.48   4.46   4.44   5.68   5.65  24.89  20.01
 2014 302    29    9.50   3.61    0.20   8.75   6.48   6.44   4.45   4.44   5.62   5.58  25.27  20.74
 2014 303    30   10.40   3.55    0.21   9.85   6.40   6.36   4.45   4.43   5.58   5.54  24.87  20.89
 2014 304    31   10.71   4.98    0.27   9.67   6.29   6.24   4.44   4.42   5.75   5.70  21.69  19.19
 2014 305    32   11.51   5.28    0.29  10.40   6.20   6.14   4.45   4.42   4.50   4.46  15.27  12.40
 2014 306    33   12.04   5.51    0.31  10.79   6.35   6.29   4.46   4.43   4.41   4.37  15.92  11.37
 2014 307    34   12.59   5.69    0.33  11.41   6.47   6.41   4.46   4.44   5.42   5.36  18.70  13.44
 2014 308    35   13.28   5.46    0.32  12.37   6.53   6.46   4.46   4.44   5.94   5.87  22.09  17.34
 2014 309    36   13.93   5.60    0.32  13.00   6.51   6.44   4.45   4.42   5.77   5.70  23.88  20.20
 2014 310    37   14.92   5.29    0.32  14.32   6.42   6.34   4.45   4.42   5.61   5.54  24.74  20.82
 2014 311    38   15.36   6.75    0.39  14.03   6.32   6.24   4.44   4.41   5.76   5.69  21.84  17.58
 2014 312    39   16.58   5.63    0.35  16.13   6.32   6.23   4.45   4.41   5.82   5.74  21.17  16.64
 2014 313    40   17.83   3.79    0.24  17.83   6.30   6.21   4.44   4.40   5.31   5.23  17.71  15.67
 2014 314    41   17.18   7.86    0.45  15.52   6.27   6.17   4.42   4.38   5.76   5.67  21.24  17.53
 2014 315    42   17.94   8.28    0.47  16.18   6.27   6.17   4.45   4.40   5.81   5.71  20.73  17.03
 2014 316    43   18.72   8.78    0.50  16.78   6.28   6.18   4.45   4.40   5.75   5.65  21.60  16.68
 2014 317    44   19.43   8.63    0.50  17.57   6.32   6.20   4.45   4.41   5.64   5.53  22.04  16.00
 2014 318    45   21.15   5.70    0.36  21.01   6.35   6.23   4.46   4.41   5.55   5.44  18.45  14.99
 2014 319    46   20.62   9.11    0.53  18.75   6.34   6.21   4.44   4.39   5.84   5.72  19.84  15.03
 2014 320    47   21.30   8.59    0.50  19.75   6.37   6.24   4.46   4.40   5.68   5.56  23.38  18.64
 2014 321    48   23.14   5.00    0.32  23.10   6.36   6.22   4.45   4.39   5.61   5.48  24.12  20.46
 2014 322    49   23.69   3.16    0.21  23.69   6.28   6.14   4.43   4.37   4.56   4.45  16.09  11.89
 2014 323    50   23.11   7.87    0.49  22.22   6.27   6.13   4.43   4.37   3.42   3.34  13.24   9.32
 2014 324    51   23.37   8.82    0.54  22.04   6.35   6.20   4.45   4.39   4.42   4.31  15.60  11.44
 2014 325    52   24.05   8.39    0.52  23.19   6.41   6.26   4.46   4.39   5.92   5.76  19.65  15.77
 2014 326    53   25.41   5.69    0.37  25.35   6.40   6.24   4.45   4.38   5.91   5.75  21.01  19.06
 2014 327    54   25.06   8.11    0.50  24.22   6.31   6.15   4.43   4.36   5.43   5.28  25.70  23.07
 2014 328    55   25.79   8.16    0.51  25.01   6.24   6.07   4.43   4.36   5.38   5.22  25.60  23.14
 2014 329    56   27.34   3.82    0.25  27.34   6.17   5.99   4.43   4.35   5.47   5.29  23.82  21.74
 2014 330    57   27.89   5.47    0.36  27.89   6.10   5.91   4.40   4.33   5.21   5.03  18.19  14.08
 2014 331    58   27.05  11.42    0.68  24.63   6.09   5.90   4.42   4.34   4.65   4.50  16.99  12.42
 2014 332    59   27.61  11.30    0.68  25.09   6.15   5.96   4.44   4.36   3.60   3.47  13.49   9.89
 2014 333    60   28.01  11.80    0.71  25.65   6.27   6.07   4.45   4.37   5.18   5.00  18.14  13.33
 2014 334    61   28.51  11.42    0.69  26.48   6.31   6.11   4.46   4.37   5.83   5.62  21.02  16.69
 2014 335    62   29.29  10.40    0.65  27.96   6.32   6.11   4.45   4.36   5.79   5.58  21.56  17.93
 2014 336    63   30.50   8.85    0.57  30.03   6.30   6.08   4.45   4.35   5.78   5.56  21.40  18.99
 2014 337    64   30.67  10.05    0.64  29.68   6.23   6.00   4.44   4.34   5.65   5.42  22.31  19.42
 2014 338    65   30.86  11.57    0.71  29.01   6.18   5.94   4.44   4.34   5.55   5.32  22.91  19.39
 2014 339    66   31.71  10.98    0.69  30.34   6.15   5.90   4.44   4.34   5.55   5.31  22.59  19.84
 2014 340    67   32.22  11.30    0.70  30.61   6.10   5.84   4.44   4.33   5.35   5.11  24.44  21.00
 2014 341    68   34.22   7.18    0.48  34.16   6.06   5.79   4.44   4.33   5.65   5.38  20.22  17.37
 2014 342    69   34.69   4.23    0.28  34.69   6.03   5.76   4.43   4.31   4.74   4.50  16.43  14.72
 2014 343    70   33.46  12.82    0.79  31.45   6.02   5.75   4.41   4.30   4.49   4.27  15.60  12.89
 2014 344    71   33.77  13.29    0.83  31.15   6.08   5.81   4.46   4.34   3.80   3.62  14.83  10.41
 2014 345    72   34.13  13.23    0.83  31.58   6.16   5.88   4.47   4.35   3.72   3.54  14.47  10.12
 2014 346    73   36.18   7.33    0.49  36.16   6.24   5.95   4.48   4.36   3.40   3.23  12.06   9.62
 2014 347    74   34.68  13.97    0.88  32.02   6.27   5.97   4.48   4.36   4.28   4.07  16.18  11.24
 2014 348    75   35.01  13.91    0.88  32.37   6.32   6.02   4.49   4.36   4.27   4.05  16.53  11.18
 2014 349    76   35.35  13.72    0.88  32.71   6.37   6.06   4.49   4.36   4.25   4.03  17.28  11.24
 2014 350    77   35.72  14.05    0.88  33.37   6.42   6.09   4.50   4.37   5.17   4.90  18.32  12.98
 2014 351    78   36.47  12.84    0.82  34.98   6.45   6.11   4.50   4.37   5.78   5.46  19.21  14.63
 2014 352    79   36.34  14.48    0.91  33.88   6.45   6.11   4.50   4.36   4.65   4.39  16.56  11.75
 2014 353    80   36.71  14.66    0.92  34.39   6.49   6.14   4.51   4.37   5.76   5.44  19.12  14.41
 2014 354    81   37.03  14.53    0.90  34.77   6.52   6.17   4.51   4.36   5.97   5.63  21.67  17.02
 2014 355    82   39.04   9.84    0.65  38.75   6.53   6.17   4.51   4.36   5.93   5.58  22.28  18.60
 2014 356    83   39.37   9.64    0.64  39.11   6.51   6.15   4.49   4.34   5.78   5.44  23.73  21.09
 2014 357    84   39.47  10.56    0.69  39.01   6.47   6.10   4.49   4.33   5.67   5.32  24.63  21.82
 2014 358    85   40.45   8.26    0.55  40.37   6.43   6.06   4.48   4.33   5.70   5.34  23.85  21.08
 2014 359    86   40.57  10.18    0.67  40.35   6.40   6.02   4.46   4.31   5.06   4.73  16.52  14.18
 2014 360    87   40.85  10.04    0.67  40.65   6.41   6.03   4.47   4.32   5.55   5.19  18.25  14.84
 2014 361    88   40.21  12.27    0.79  39.33   6.41   6.03   4.47   4.31   5.75   5.38  23.06  19.99
 2014 362    89   39.64  14.24    0.89  37.81   6.39   6.00   4.46   4.30   5.72   5.34  23.16  19.45
 2014 363    90   40.22  13.66    0.87  38.78   6.38   5.99   4.47   4.30   5.74   5.36  22.78  19.11
 2014 364    91   42.11   4.25    0.29  42.11   6.37   5.98   4.46   4.30   5.71   5.33  19.02  17.78
 2014 365    92   42.31   5.45    0.37  42.31   6.36   5.97   4.44   4.28   5.15   4.81  16.99  16.02
 2015 001    93   42.09  10.81    0.71  41.81   6.35   5.96   4.44   4.28   5.94   5.54  20.04  17.40
 2015 002    94   41.59  12.36    0.80  40.84   6.34   5.95   4.44   4.28   5.69   5.31  22.95  20.01
 2015 003    95   41.05  13.55    0.86  39.64   6.32   5.94   4.43   4.27   5.49   5.12  25.14  22.50
 2015 004    96   40.65  15.23    0.94  38.48   6.30   5.91   4.43   4.27   5.49   5.12  24.89  21.68
 2015 005    97   42.13  12.84    0.83  41.40   6.29   5.90   4.43   4.27   5.85   5.45  20.37  17.29
 2015 006    98   41.24  15.01    0.94  39.48   6.28   5.89   4.43   4.26   5.72   5.33  21.94  17.52
 2015 007    99   40.82  17.61    1.09  38.12   6.30   5.90   4.43   4.27   4.88   4.54  16.72  12.73
 2015 008   100   41.11  15.79    0.99  38.66   6.36   5.95   4.45   4.29   3.39   3.15  13.06   9.14
 2015 009   101   43.29  12.62    0.82  42.84   6.44   6.03   4.47   4.30   4.05   3.77  13.48  10.86
 2015 010   102   41.64  16.13    1.01  39.62   6.49   6.08   4.47   4.30   4.40   4.09  15.38  11.15
 2015 011   103   42.75  14.36    0.91  41.64   6.55   6.13   4.49   4.31   5.98   5.57  21.77  17.04
 2015 012   104   44.50   7.44    0.49  44.50   6.55   6.13   4.47   4.30   5.97   5.55  21.95  19.60
 2015 013   105   43.09  14.28    0.91  42.10   6.54   6.12   4.45   4.28   5.99   5.57  21.58  18.45
 2015 014   106   44.82   7.51    0.50  44.82   6.53   6.11   4.48   4.30   5.39   5.01  17.29  15.81
 2015 015   107   44.85   5.18    0.34  44.85   6.53   6.11   4.46   4.28   4.33   4.02  13.80  12.66
 2015 016   108   42.14  17.38    1.07  40.03   6.52   6.11   4.45   4.28   5.24   4.87  16.94  13.41
 2015 017   109   41.97  18.26    1.13  39.51   6.57   6.15   4.48   4.31   5.60   5.21  18.86  13.71
 2015 018   110   43.12  16.39    1.02  41.62   6.61   6.19   4.49   4.31   5.78   5.37  18.43  15.03
 2015 019   111   42.05  19.57    1.20  39.37   6.63   6.20   4.49   4.31   5.39   5.01  17.84  13.12
 2015 020   112   45.79   9.96    0.65  45.76   6.69   6.25   4.51   4.33   5.63   5.23  17.97  13.79
 2015 021   113   42.84  17.57    1.08  40.85   6.69   6.25   4.51   4.32   6.10   5.67  21.89  16.89
 2015 022   114   43.07  17.41    1.06  41.17   6.70   6.26   4.52   4.33   6.05   5.63  22.62  18.16
 2015 023   115   45.18  14.09    0.90  44.57   6.71   6.26   4.51   4.33   6.08   5.65  22.40  19.73
 2015 024   116   45.02  15.23    0.96  44.29   6.69   6.25   4.50   4.31   5.54   5.14  17.48  13.75
 2015 025   117   42.58  19.45    1.19  40.00   6.71   6.26   4.51   4.32   4.26   3.95  14.90  10.53
 2015 026   118   43.05  19.43    1.17  40.86   6.78   6.33   4.53   4.34   5.13   4.77  15.77  13.20
 2015 027   119   42.73  19.85    1.21  40.18   6.83   6.37   4.53   4.34   4.40   4.09  15.21  10.67
 2015 028   120   42.78  20.80    1.26  40.16   6.90   6.44   4.55   4.36   4.44   4.13  14.42  10.72
 2015 029   121   42.92  20.64    1.26  40.39   6.99   6.51   4.57   4.37   5.19   4.82  17.51  12.07
 2015 030   122   43.70  19.27    1.18  41.72   7.04   6.56   4.57   4.37   5.36   4.98  17.41  12.32
 2015 031   123   43.25  20.84    1.26  40.92   7.07   6.59   4.58   4.38   5.79   5.38  18.18  13.18
 2015 032   124   43.23  21.44    1.30  40.89   7.11   6.62   4.59   4.38   6.60   6.13  20.25  15.35
 2015 033   125   47.30  14.67    0.93  46.93   7.14   6.64   4.59   4.39   6.66   6.18  20.21  15.58
 2015 034   126   43.64  20.11    1.23  41.60   7.13   6.64   4.58   4.38   4.71   4.37  15.84  10.90
 2015 035   127   46.03  17.75    1.10  45.03   7.18   6.69   4.60   4.39   6.71   6.23  20.24  16.15
 2015 036   128   48.36   8.46    0.54  48.36   7.19   6.69   4.58   4.37   6.25   5.80  18.34  14.93
 2015 037   129   43.12  22.76    1.36  40.94   7.18   6.68   4.57   4.36   5.52   5.12  16.39  12.70
 2015 038   130   43.21  22.77    1.37  41.10   7.23   6.73   4.58   4.37   6.16   5.72  18.45  13.80
 2015 039   131   43.48  22.15    1.33  41.51   7.26   6.76   4.58   4.37   6.70   6.22  20.11  15.01
 2015 040   132   48.86   7.71    0.49  48.86   7.29   6.78   4.58   4.37   6.64   6.16  19.36  15.94
 2015 041   133   43.29  23.00    1.37  41.34   7.28   6.78   4.56   4.35   5.43   5.04  15.87  12.44
 2015 042   134   43.07  23.86    1.43  41.11   7.32   6.82   4.56   4.35   5.67   5.26  16.90  12.61
 2015 043   135   43.27  22.72    1.37  41.41   7.37   6.86   4.56   4.35   5.00   4.64  16.06  11.15
 2015 044   136   43.13  22.41    1.35  41.29   7.42   6.90   4.56   4.35   3.87   3.59  12.59   8.99
 2015 045   137   43.16  22.14    1.36  41.38   7.51   6.98   4.56   4.35   4.02   3.73  13.97   9.23
 2015 046   138   43.48  23.47    1.41  41.79   7.58   7.05   4.57   4.34   6.31   5.85  18.92  13.35
[...]
 2015 076   168   43.31  27.98    1.58  42.36   7.72   7.21   4.22   4.01   6.66   6.06  24.78  20.83
 2015 077   169   44.86  25.75    1.45  43.78   7.73   7.22   4.21   4.00   6.47   5.88  26.63  22.58
 2015 078   170   46.94  24.57    1.39  45.94   7.72   7.21   4.20   3.99   6.56   5.95  25.73  21.85
 2015 079   171   44.12  27.47    1.54  43.12   7.72   7.21   4.19   3.97   6.61   5.99  25.11  20.98
 2015 080   172   44.94  26.72    1.49  43.89   7.72   7.21   4.18   3.96   6.54   5.92  25.73  21.00
 2015 081   173   46.79  25.64    1.44  45.78   7.73   7.22   4.17   3.95   6.62   5.99  25.01  20.63
 2015 082   174   52.14  16.67    0.97  52.15   7.73   7.22   4.16   3.94   6.81   6.15  23.09  20.76
 2015 083   175   49.38  23.92    1.36  48.75   7.72   7.21   4.14   3.92   6.69   6.05  23.96  20.71
 2015 084   176   48.05  25.02    1.40  47.16   7.71   7.21   4.12   3.91   6.52   5.88  25.48  21.41
 2015 085   177   47.64  25.22    1.40  46.70   7.71   7.20   4.11   3.90   6.40   5.77  26.45  22.10
 2015 086   178   52.25  15.39    0.89  52.25   7.71   7.20   4.09   3.88   6.71   6.05  23.26  19.75
 2015 087   179   44.57  29.96    1.67  43.55   7.70   7.20   4.07   3.86   6.18   5.57  17.43  13.85

*DSSAT Cropping System Model Ver. 4.8.5.017 pre-release  JUN 28, 2025 01:30:49

*RUN   7        : Sensation                 CRGRO048 UFWM1401    2
 MODEL          : CRGRO048 - Strawberry
 EXPERIMENT     : UFWM1401 SR 2014 WIMAUMA STRAWBERRY GROWTH AND YIELD ANALYSIS
 DATA PATH      : /data/Strawberry/
 TREATMENT  2   : Sensation                 CRGRO048
  
@YEAR DOY   DAS    LI%D   PHAD   PHAN    LI%N   SLLN   SLHN   N%LN   N%HN   LMLN   LMHN   TGON   TGAV
 2014 274     1    0.00   0.00    0.00   0.00   0.00   0.00   0.00   0.00   0.00   0.00  27.53  24.96
 2014 275     2    0.00   0.00    0.00   0.00   0.00   0.00   0.00   0.00   0.00   0.00  28.74  25.40
 2014 276     3    0.00   0.00    0.00   0.00   0.00   0.00   0.00   0.00   0.00   0.00  28.43  25.10
 2014 277     4    0.00   0.00    0.00   0.00   0.00   0.00   0.00   0.00   0.00   0.00  25.11  21.15
 2014 278     5    0.00   0.00    0.00   0.00   0.00   0.00   0.00   0.00   0.00   0.00  21.83  17.74
 2014 279     6    0.00   0.00    0.00   0.00   0.00   0.00   0.00   0.00   0.00   0.00  23.83  19.35
 2014 280     7    0.00   0.00    0.00   0.00   0.00   0.00   0.00   0.00   0.00   0.00  25.99  22.64
 2014 281     8    0.00   0.00    0.00   0.00   0.00   0.00   0.00   0.00   0.00   0.00  27.67  23.90
 2014 282     9    0.00   0.00    0.00   0.00   0.00   0.00   0.00   0.00   0.00   0.00  27.20  23.50
 2014 283    10    0.28   0.16    0.01   0.25   7.29   7.27   4.59   4.58   7.23   7.21  27.39  23.32
 2014 284    11    3.69   1.91    0.10   3.26   7.27   7.25   4.58   4.57   7.15   7.14  27.87  23.76
 2014 285    12    3.88   1.95    0.10   3.44   7.25   7.23   4.57   4.56   7.19   7.17  27.43  23.47
 2014 286    13    4.05   1.98    0.10   3.61   7.23   7.21   4.56   4.55   7.16   7.14  27.52  23.73
 2014 287    14    5.06   0.97    0.06   5.06   7.21   7.20   4.54   4.53   7.34   7.32  25.91  23.65
 2014 288    15    4.64   1.91    0.11   4.33   7.18   7.16   4.53   4.52   7.53   7.51  23.98  20.17
 2014 289    16    4.44   2.28    0.12   3.90   7.17   7.15   4.52   4.51   7.63   7.61  22.96  19.11
 2014 290    17    4.51   2.36    0.12   3.92   7.15   7.13   4.50   4.49   7.59   7.57  23.15  18.37
 2014 291    18    4.60   2.35    0.12   4.01   7.14   7.13   4.49   4.48   7.55   7.53  23.46  18.34
 2014 292    19    4.79   2.25    0.12   4.24   7.13   7.11   4.48   4.47   7.43   7.41  24.36  19.62
 2014 293    20    5.01   2.13    0.12   4.53   7.10   7.08   4.46   4.46   7.33   7.31  24.90  20.44
 2014 294    21    6.03   1.63    0.10   5.96   6.97   6.95   4.46   4.45   7.17   7.14  25.17  22.17
 2014 295    22    5.84   2.52    0.14   5.21   6.75   6.72   4.45   4.44   6.88   6.85  25.73  22.11
 2014 296    23    6.30   3.03    0.16   5.48   6.59   6.57   4.46   4.45   6.91   6.89  23.94  19.97
 2014 297    24    6.93   3.29    0.17   6.00   6.52   6.49   4.46   4.45   6.92   6.89  23.05  19.12
 2014 298    25    7.48   3.67    0.19   6.44   6.47   6.44   4.46   4.44   6.91   6.88  22.63  18.50
 2014 299    26    8.05   3.96    0.21   6.94   6.45   6.42   4.46   4.44   6.84   6.81  22.95  17.07
 2014 300    27    8.79   4.21    0.23   7.88   6.49   6.46   4.46   4.45   6.81   6.77  23.93  18.56
 2014 301    28    9.40   4.33    0.24   8.49   6.50   6.46   4.46   4.44   6.72   6.68  24.89  20.01
 2014 302    29   10.23   3.93    0.23   9.65   6.47   6.42   4.46   4.44   6.64   6.60  25.27  20.74
 2014 303    30   11.07   3.83    0.23  10.71   6.38   6.34   4.45   4.43   6.60   6.55  24.87  20.89
 2014 304    31   11.41   5.43    0.30  10.29   6.27   6.22   4.44   4.42   6.80   6.74  21.69  19.19
 2014 305    32   12.29   5.84    0.33  11.09   6.18   6.12   4.45   4.43   5.32   5.27  15.27  12.40
 2014 306    33   12.89   6.15    0.35  11.53   6.34   6.28   4.46   4.44   5.22   5.17  15.92  11.37
 2014 307    34   13.50   6.29    0.36  12.22   6.47   6.40   4.47   4.44   6.41   6.35  18.70  13.44
 2014 308    35   14.26   5.98    0.35  13.28   6.53   6.46   4.47   4.44   7.03   6.95  22.09  17.34
 2014 309    36   14.97   6.13    0.36  13.97   6.51   6.44   4.46   4.43   6.83   6.75  23.88  20.20
 2014 310    37   16.05   5.77    0.35  15.40   6.41   6.33   4.45   4.42   6.64   6.55  24.74  20.82
 2014 311    38   16.55   7.45    0.43  15.11   6.31   6.23   4.45   4.41   6.83   6.73  21.84  17.58
 2014 312    39   17.86   6.16    0.38  17.38   6.32   6.22   4.45   4.41   6.90   6.79  21.17  16.64
 2014 313    40   19.21   4.12    0.26  19.21   6.30   6.20   4.45   4.40   6.29   6.18  17.71  15.67
 2014 314    41   18.58   8.72    0.50  16.77   6.26   6.16   4.43   4.38   6.83   6.71  21.24  17.53
 2014 315    42   19.43   9.21    0.53  17.51   6.27   6.16   4.45   4.41   6.89   6.76  20.73  17.03
 2014 316    43   20.31   9.81    0.56  18.20   6.28   6.17   4.45   4.40   6.82   6.68  21.60  16.68
 2014 317    44   21.10   9.65    0.56  19.08   6.32   6.20   4.46   4.40   6.69   6.55  22.04  16.00
 2014 318    45   22.95   6.26    0.40  22.80   6.36   6.23   4.46   4.41   6.58   6.44  18.45  14.99
 2014 319    46   22.43  10.18    0.60  20.38   6.34   6.20   4.45   4.39   6.93   6.77  19.84  15.03
 2014 320    47   23.16   9.54    0.56  21.47   6.37   6.23   4.46   4.40   6.74   6.58  23.38  18.64
 2014 321    48   25.08   5.46    0.35  25.04   6.36   6.21   4.45   4.39   6.65   6.48  24.12  20.46
 2014 322    49   25.65   3.44    0.22  25.65   6.29   6.14   4.43   4.37   5.42   5.28  16.09  11.89
 2014 323    50   25.02   8.78    0.55  24.06   6.28   6.13   4.43   4.37   4.07   3.96  13.24   9.32
 2014 324    51   25.30   9.80    0.60  23.88   6.36   6.20   4.46   4.39   5.25   5.11  15.60  11.44
 2014 325    52   26.02   9.22    0.58  25.10   6.42   6.25   4.46   4.39   7.02   6.83  19.65  15.77
 2014 326    53   27.42   6.18    0.40  27.36   6.41   6.24   4.45   4.38   7.02   6.81  21.01  19.06
 2014 327    54   27.03   8.86    0.55  26.12   6.33   6.15   4.43   4.35   6.46   6.26  25.70  23.07
 2014 328    55   27.72   8.88    0.56  26.89   6.27   6.08   4.43   4.36   6.40   6.20  25.60  23.14
 2014 329    56   29.26   4.11    0.27  29.26   6.20   6.01   4.43   4.35   6.51   6.30  23.82  21.74
 2014 330    57   29.77   5.88    0.39  29.77   6.14   5.95   4.40   4.32   6.21   6.00  18.19  14.08
 2014 331    58   28.88  12.62    0.76  26.32   6.13   5.93   4.42   4.34   5.55   5.36  16.99  12.42
 2014 332    59   29.50  12.62    0.76  26.82   6.19   5.99   4.44   4.36   4.29   4.14  13.49   9.89
 2014 333    60   29.95  13.00    0.79  27.44   6.31   6.10   4.46   4.37   6.18   5.96  18.14  13.33
 2014 334    61   30.50  12.47    0.76  28.33   6.36   6.14   4.46   4.37   6.95   6.70  21.02  16.69
 2014 335    62   31.30  11.28    0.70  29.88   6.36   6.13   4.46   4.36   6.91   6.64  21.56  17.93
 2014 336    63   32.53   9.54    0.62  32.03   6.34   6.10   4.45   4.35   6.90   6.62  21.40  18.99
 2014 337    64   32.73  10.86    0.69  31.68   6.27   6.03   4.44   4.34   6.73   6.45  22.31  19.42
 2014 338    65   32.97  12.59    0.77  30.99   6.21   5.96   4.45   4.34   6.62   6.33  22.91  19.39
 2014 339    66   33.87  11.90    0.75  32.41   6.18   5.92   4.45   4.34   6.61   6.31  22.59  19.84
 2014 340    67   34.43  12.28    0.76  32.72   6.13   5.86   4.45   4.33   6.38   6.07  24.44  21.00
 2014 341    68   36.50   7.71    0.51  36.44   6.09   5.81   4.45   4.33   6.73   6.40  20.22  17.37
 2014 342    69   37.00   4.53    0.30  37.00   6.06   5.77   4.43   4.32   5.64   5.35  16.43  14.72
 2014 343    70   35.79  14.06    0.87  33.65   6.05   5.77   4.42   4.30   5.35   5.07  15.60  12.89
 2014 344    71   36.15  14.82    0.93  33.36   6.11   5.82   4.47   4.34   4.53   4.30  14.83  10.41
 2014 345    72   36.57  14.77    0.93  33.84   6.19   5.89   4.48   4.35   4.43   4.21  14.47  10.12
 2014 346    73   38.67   7.93    0.53  38.64   6.27   5.97   4.49   4.36   4.06   3.85  12.06   9.62
 2014 347    74   37.20  15.57    0.98  34.36   6.30   5.99   4.49   4.36   5.11   4.84  16.18  11.24
 2014 348    75   37.58  15.52    0.98  34.76   6.36   6.04   4.50   4.37   5.10   4.82  16.53  11.18
 2014 349    76   37.97  15.33    0.99  35.15   6.41   6.08   4.51   4.37   5.07   4.79  17.28  11.24
 2014 350    77   38.39  15.53    0.98  35.88   6.46   6.12   4.51   4.37   6.17   5.83  18.32  12.98
 2014 351    78   39.18  14.03    0.90  37.59   6.49   6.14   4.52   4.37   6.89   6.50  19.21  14.63
 2014 352    79   39.11  16.10    1.01  36.47   6.50   6.14   4.52   4.36   5.55   5.23  16.56  11.75
 2014 353    80   39.53  16.18    1.01  37.04   6.54   6.17   4.53   4.37   6.88   6.47  19.12  14.41
 2014 354    81   39.91  15.99    1.00  37.48   6.56   6.18   4.53   4.37   7.11   6.68  21.67  17.02
 2014 355    82   42.01  10.68    0.71  41.71   6.56   6.17   4.53   4.36   7.06   6.62  22.28  18.60
 2014 356    83   42.43  10.47    0.69  42.14   6.53   6.13   4.51   4.35   6.87   6.43  23.73  21.09
 2014 357    84   42.57  11.49    0.75  42.07   6.48   6.08   4.50   4.34   6.73   6.29  24.63  21.82
 2014 358    85   43.62   8.97    0.60  43.54   6.44   6.04   4.50   4.33   6.77   6.32  23.85  21.08
 2014 359    86   43.79  11.09    0.74  43.56   6.41   6.00   4.48   4.31   6.01   5.60  16.52  14.18
 2014 360    87   44.09  10.93    0.73  43.88   6.42   6.01   4.49   4.32   6.58   6.14  18.25  14.84
 2014 361    88   43.44  13.40    0.87  42.49   6.42   6.01   4.49   4.32   6.82   6.35  23.06  19.99
 2014 362    89   42.87  15.65    0.98  40.91   6.40   5.98   4.48   4.31   6.79   6.31  23.16  19.45
 2014 363    90   43.46  14.96    0.95  41.92   6.39   5.97   4.48   4.31   6.82   6.33  22.78  19.11
 2014 364    91   45.37   4.59    0.31  45.37   6.38   5.96   4.47   4.30   6.78   6.30  19.02  17.78
 2014 365    92   45.59   5.90    0.40  45.59   6.36   5.95   4.45   4.28   6.11   5.67  16.99  16.02
 2015 001    93   45.38  11.75    0.78  45.08   6.35   5.94   4.45   4.28   7.04   6.53  20.04  17.40
 2015 002    94   44.88  13.47    0.87  44.08   6.34   5.93   4.45   4.28   6.75   6.26  22.95  20.01
 2015 003    95   44.35  14.83    0.94  42.84   6.32   5.91   4.44   4.27   6.51   6.03  25.14  22.50
 2015 004    96   43.93  16.75    1.04  41.60   6.30   5.89   4.44   4.27   6.51   6.04  24.89  21.68
 2015 005    97   45.42  13.99    0.91  44.65   6.29   5.87   4.44   4.26   6.94   6.43  20.37  17.29
 2015 006    98   44.54  16.47    1.04  42.66   6.29   5.87   4.43   4.26   6.79   6.28  21.94  17.52
 2015 007    99   44.12  19.63    1.21  41.23   6.30   5.88   4.44   4.26   5.79   5.36  16.72  12.73
 2015 008   100   44.43  17.76    1.12  41.82   6.36   5.93   4.46   4.29   4.01   3.72  13.06   9.14
 2015 009   101   46.67  13.80    0.90  46.20   6.44   6.00   4.49   4.31   4.80   4.45  13.48  10.86
 2015 010   102   44.99  17.89    1.12  42.84   6.49   6.05   4.49   4.31   5.21   4.83  15.38  11.15
 2015 011   103   46.13  15.68    1.00  44.94   6.54   6.09   4.50   4.31   7.09   6.56  21.77  17.04
 2015 012   104   47.89   8.04    0.53  47.89   6.55   6.10   4.49   4.30   7.07   6.54  21.95  19.60
 2015 013   105   46.46  15.56    0.99  45.40   6.53   6.08   4.47   4.28   7.09   6.56  21.58  18.45
 2015 014   106   48.17   8.12    0.54  48.17   6.52   6.07   4.49   4.30   6.37   5.90  17.29  15.81
 2015 015   107   48.22   5.59    0.37  48.22   6.51   6.07   4.47   4.28   5.12   4.74  13.80  12.66
 2015 016   108   45.43  19.14    1.18  43.19   6.51   6.07   4.46   4.28   6.20   5.73  16.94  13.41
 2015 017   109   45.29  20.21    1.25  42.67   6.56   6.11   4.50   4.31   6.63   6.14  18.86  13.71
 2015 018   110   46.50  17.95    1.13  44.91   6.61   6.15   4.51   4.32   6.84   6.33  18.43  15.03
 2015 019   111   45.43  21.80    1.34  42.60   6.63   6.17   4.51   4.32   6.38   5.91  17.84  13.12
 2015 020   112   49.35  10.82    0.71  49.32   6.69   6.22   4.54   4.34   6.67   6.18  17.97  13.79
 2015 021   113   46.28  19.32    1.19  44.17   6.69   6.22   4.53   4.33   7.23   6.69  21.89  16.89
 2015 022   114   46.50  19.10    1.17  44.49   6.70   6.23   4.54   4.34   7.17   6.63  22.62  18.16
 2015 023   115   48.64  15.30    0.98  48.00   6.70   6.23   4.53   4.33   7.20   6.65  22.40  19.73
 2015 024   116   48.42  16.57    1.05  47.64   6.69   6.22   4.51   4.31   6.56   6.06  17.48  13.75
 2015 025   117   45.83  21.71    1.33  43.11   6.70   6.22   4.51   4.32   5.04   4.66  14.90  10.53
 2015 026   118   46.31  21.38    1.30  43.99   6.76   6.28   4.53   4.33   6.06   5.61  15.77  13.20
 2015 027   119   45.93  22.09    1.35  43.24   6.80   6.32   4.52   4.32   5.19   4.80  15.21  10.67
 2015 028   120   45.94  23.12    1.40  43.18   6.85   6.37   4.53   4.33   5.23   4.83  14.42  10.72
 2015 029   121   46.07  22.81    1.40  43.40   6.93   6.44   4.53   4.32   6.10   5.63  17.51  12.07
 2015 030   122   46.85  21.09    1.29  44.76   6.97   6.47   4.53   4.32   6.29   5.81  17.41  12.32
 2015 031   123   46.37  22.86    1.39  43.89   7.00   6.50   4.52   4.32   6.80   6.28  18.18  13.18
 2015 032   124   46.34  23.46    1.42  43.81   7.03   6.53   4.52   4.31   7.73   7.13  20.25  15.35
 2015 033   125   50.42  15.73    1.00  50.02   7.05   6.55   4.51   4.30   7.79   7.19  20.21  15.58
 2015 034   126   46.70  22.07    1.35  44.47   7.05   6.54   4.50   4.29   5.51   5.08  15.84  10.90
 2015 035   127   49.05  19.08    1.18  47.98   7.09   6.58   4.50   4.29   7.85   7.23  20.24  16.15
 2015 036   128   51.35   9.00    0.57  51.35   7.09   6.58   4.48   4.27   7.31   6.73  18.34  14.93
 2015 037   129   46.08  24.93    1.49  43.67   7.08   6.58   4.47   4.26   6.45   5.94  16.39  12.70
 2015 038   130   46.13  24.85    1.49  43.80   7.12   6.62   4.46   4.25   7.20   6.62  18.45  13.80
 2015 039   131   46.38  24.07    1.45  44.21   7.15   6.65   4.46   4.25   7.82   7.19  20.11  15.01
 2015 040   132   51.74   8.17    0.52  51.74   7.17   6.66   4.45   4.24   7.74   7.12  19.36  15.94
 2015 041   133   46.13  25.07    1.49  43.98   7.16   6.66   4.44   4.23   6.33   5.82  15.87  12.44
 2015 042   134   45.88  26.04    1.56  43.71   7.20   6.69   4.43   4.22   6.60   6.07  16.90  12.61
 2015 043   135   46.07  24.83    1.50  44.00   7.23   6.72   4.43   4.22   5.81   5.34  16.06  11.15
 2015 044   136   45.94  24.70    1.49  43.89   7.28   6.76   4.43   4.21   4.50   4.13  12.59   8.99
 2015 045   137   45.99  24.40    1.50  44.00   7.37   6.85   4.43   4.22   4.68   4.29  13.97   9.23
 2015 046   138   46.33  25.51    1.53  44.45   7.44   6.91   4.44   4.22   7.33   6.73  18.92  13.35
 2015 047   139   48.22  23.13    1.39  46.73   7.46   6.93   4.43   4.21   8.17   7.50  19.87  15.08
 2015 048   140   51.01  19.19    1.17  50.40   7.46   6.93   4.42   4.20   8.12   7.44  21.43  17.47
 2015 049   141   45.70  27.02    1.60  43.91   7.45   6.93   4.41   4.19   5.66   5.19  13.78  10.98
 2015 050   142   45.59  22.58    1.38  43.86   7.53   7.00   4.41   4.19   2.97   2.73   9.37   6.37
 2015 051   143   45.70  20.05    1.34  44.03   7.63   7.09   4.42   4.20   2.78   2.55  11.66   6.41
 2015 052   144   47.80  24.07    1.44  46.34   7.70   7.16   4.43   4.20   6.98   6.40  18.40  12.45
 2015 053   145   49.08  22.63    1.34  47.88   7.72   7.18   4.42   4.20   8.22   7.53  22.93  18.33
 2015 054   146   47.31  24.42    1.44  45.85   7.72   7.17   4.41   4.18   8.21   7.52  22.88  19.11
 2015 055   147   50.63  20.93    1.26  49.92   7.71   7.17   4.39   4.16   8.42   7.71  21.05  19.07
 2015 056   148   52.47  15.23    0.93  52.44   7.69   7.16   4.37   4.15   8.19   7.50  22.75  19.46
 2015 057   149   52.48  13.20    0.81  52.48   7.68   7.16   4.35   4.13   8.45   7.73  19.87  16.78
 2015 058   150   52.37  10.09    0.62  52.37   7.67   7.15   4.33   4.11   6.35   5.81  14.59  13.23
 2015 059   151   52.30   3.94    0.24  52.30   7.67   7.15   4.32   4.10   7.49   6.85  17.37  15.22
 2015 060   152   47.97  22.65    1.32  46.80   7.66   7.15   4.30   4.09   7.78   7.11  25.70  22.04
 2015 061   153   48.80  21.95    1.29  47.82   7.65   7.14   4.29   4.07   7.81   7.13  25.26  21.92
 2015 062   154   47.57  23.42    1.36  46.36   7.64   7.12   4.28   4.06   7.83   7.14  24.94  20.76
 2015 063   155   46.30  24.59    1.42  44.99   7.63   7.12   4.27   4.05   7.71   7.03  25.78  21.07
 2015 064   156   48.35  22.94    1.34  47.29   7.63   7.11   4.26   4.04   7.77   7.07  25.30  21.60
 2015 065   157   50.04  21.50    1.26  49.38   7.62   7.11   4.24   4.03   7.91   7.19  23.94  19.12
 2015 066   158   50.89  20.89    1.24  50.50   7.62   7.10   4.23   4.02   8.27   7.51  19.75  15.90
 2015 067   159   46.32  25.62    1.48  45.07   7.62   7.11   4.22   4.01   8.03   7.29  22.85  18.79
 2015 068   160   46.28  25.30    1.45  45.06   7.62   7.11   4.21   3.99   7.82   7.10  24.49  19.90
 2015 069   161   45.70  25.24    1.44  44.47   7.62   7.11   4.19   3.98   7.56   6.85  26.56  22.50
 2015 070   162   49.83  21.04    1.23  49.21   7.61   7.11   4.17   3.96   7.46   6.76  27.16  23.26
 2015 071   163   45.63  25.00    1.43  44.43   7.61   7.10   4.16   3.95   7.47   6.77  26.88  23.83
 2015 072   164   45.54  25.33    1.44  44.34   7.60   7.10   4.14   3.93   7.55   6.84  26.06  22.55
 2015 073   165   45.58  25.06    1.42  44.40   7.59   7.10   4.12   3.91   7.46   6.75  26.64  22.88
 2015 074   166   44.60  26.38    1.49  43.44   7.58   7.10   4.10   3.90   7.58   6.86  25.40  21.53
 2015 075   167   43.77  27.16    1.53  42.69   7.58   7.09   4.08   3.88   7.46   6.74  26.24  21.63
 2015 076   168   43.35  28.31    1.60  42.33   7.58   7.10   4.07   3.87   7.62   6.89  24.78  20.83
 2015 077   169   44.76  25.86    1.46  43.63   7.58   7.10   4.06   3.86   7.39   6.67  26.63  22.58
 2015 078   170   46.70  24.51    1.39  45.67   7.58   7.10   4.05   3.85   7.48   6.75  25.73  21.85
 2015 079   171   43.75  27.45    1.54  42.69   7.57   7.09   4.03   3.83   7.53   6.79  25.11  20.98
 2015 080   172   44.40  26.54    1.49  43.29   7.57   7.10   4.02   3.82   7.44   6.70  25.73  21.00
 2015 081   173   46.09  25.29    1.42  45.04   7.57   7.10   4.00   3.80   7.51   6.76  25.01  20.63
 2015 082   174   51.25  16.28    0.95  51.26   7.57   7.10   3.99   3.79   7.71   6.94  23.09  20.76
 2015 083   175   48.28  23.27    1.32  47.63   7.56   7.10   3.94   3.75   7.54   6.78  23.96  20.71
 2015 084   176   46.70  24.18    1.36  45.79   7.55   7.09   3.91   3.72   7.30   6.56  25.48  21.41
 2015 085   177   46.13  24.25    1.35  45.16   7.55   7.10   3.88   3.69   7.15   6.41  26.45  22.10
 2015 086   178   50.52  14.68    0.85  50.52   7.55   7.10   3.86   3.67   7.48   6.70  23.26  19.75
 2015 087   179   42.86  28.74    1.60  41.78   7.53   7.09   3.83   3.64   6.85   6.14  17.43  13.85
