*Fresh Weight Output File

!----------------------------
! Variable Descriptions (unit)
!----------------------------
!YEAR  Year of current date of simulation
!DOY  Day of year (d)
!DAS  Days after start of simulation (d)
!PDMCD  Dry matter con. of harvested product (fraction)
!AFPWD  Average fresh fruit (pod, ear) weight (g/fruit)
!ADPWD  Average dry fruit (pod, ear) weight (g/fruit)
!PAGED  Age of oldest pod or ear (days)
!XMAGE  Required pod age for Multi-Harvest (days)
!TOSDN  Total Number of seeds (#/ha)
!TOWSD  Total Seed mass (kg/ha)
!TOSHN  Total Number of shells (#/ha)
!TOWSH  Total Shell mass (kg/ha)
!TOPOW  Total pod weight (kg/ha)
!TOFPW  Total pod (ear) fresh weight (kg/ha)
!MTFPW  Fresh weight of mature fruits (kg/ha)
!MTDPW  Dry weight of mature fruits (sd and sh)(kg/ha)
!MTDSD  Seed mass of mature fruits (kg/ha)
!MTDSH  Shell mass of mature fruits (kg/ha)
!HSHELWT  Harvested shell weight (kg/ha)
!HSDWT  Harvested seed weight (kg/ha)
!HPODWT  Harvested pod weight (kg/ha)
!HFPOW  Harvested fresh pod weight (kg/ha)
!CPODN  Cum. pod weight (kg/ha)
!CMFNM  Cum. mature fruit number (#)
!CHPDT  Cum. har. pod weight of mat. fruits (kg/ha)
!CHFPW  Cum. har. fresh weight of mat. fruits (kg/ha)
!CHNUM  Cum. harvest number (#)

*DSSAT Cropping System Model Ver. 4.8.5.017 pre-release  JUN 28, 2025 01:29:39

*RUN   1        : Radiance                  CRGRO048 UFBA1401    1
 MODEL          : CRGRO048 - Strawberry
 EXPERIMENT     : UFBA1401 SR 2014 BALM STRAWBERRY VARIETY TRIAL
 DATA PATH      : /data/Strawberry/
 TREATMENT  1   : Radiance                  CRGRO048
  
@YEAR DOY   DAS   DAP    PDMCD    AFPWD    ADPWD    PAGED    XMAGE    CHNUM    TOSHN    TOWSH    MTDSH    HSHEL    TOPOW    HPODW    CHPDT    CPODN    TOFPW    MTFPW    MTDPW    HFPOW    CHFPW    CMFNM    TOSDN    TOWSD    MTDSD    HSDWT
 2014 311    38    29      0.0      0.0      0.0      0.0     10.0        0      0.5      0.0      0.0      0.0      0.0      0.0      0.0        0        0      0.0      0.0      0.0      0.0        0      0.0      0.0      0.0      0.0
 2014 312    39    30      0.2      0.3      0.1      0.8     10.0        0      0.7      0.4      0.0      0.0      0.4      0.0      0.0        0        2      0.0      0.0      0.0      0.0        0      0.0      0.0      0.0      0.0
 2014 313    40    31      0.2      0.7      0.1      1.7     10.0        0      0.9      1.0      0.0      0.0      1.0      0.0      0.0        0        6      0.0      0.0      0.0      0.0        0      0.0      0.0      0.0      0.0
 2014 314    41    32      0.2      0.9      0.1      2.6     10.0        0      1.2      1.7      0.0      0.0      1.7      0.0      0.0        0       11      0.0      0.0      0.0      0.0        0      0.0      0.0      0.0      0.0
 2014 315    42    33      0.2      1.1      0.2      3.4     10.0        0      1.5      2.7      0.0      0.0      2.7      0.0      0.0        0       17      0.0      0.0      0.0      0.0        0      0.0      0.0      0.0      0.0
 2014 316    43    34      0.2      1.8      0.3      4.2     10.0        0      1.8      5.3      0.0      0.0      5.3      0.0      0.0       10       33      0.0      0.0      0.0      0.0        0      0.0      0.0      0.0      0.0
 2014 317    44    35      0.2      2.1      0.3      4.8     10.0        0      2.0      7.0      0.0      0.0      7.0      0.0      0.0       20       44      0.0      0.0      0.0      0.0        0     77.1      0.0      0.0      0.0
 2014 318    45    36      0.2      3.0      0.5      5.6     10.0        0      2.1     10.1      0.0      0.0     10.3      0.0      0.0       30       64      0.0      0.0      0.0      0.0        0    110.1      0.2      0.0      0.0
 2014 319    46    37      0.2      4.0      0.6      6.3     10.0        0      2.2     13.2      0.0      0.0     13.8      0.0      0.0       40       86      0.0      0.0      0.0      0.0        0    137.5      0.6      0.0      0.0
 2014 320    47    38      0.2      5.5      0.9      7.1     10.0        0      2.2     18.3      0.0      0.0     19.3      0.0      0.0       60      121      0.0      0.0      0.0      0.0        0    184.8      1.1      0.0      0.0
 2014 321    48    39      0.2      7.3      1.2      7.9     10.0        0      2.3     24.8      0.0      0.0     26.6      0.0      0.0       90      166      0.0      0.0      0.0      0.0        0    236.9      1.8      0.0      0.0
 2014 322    49    40      0.2      8.1      1.3      8.4     10.0        0      2.3     28.2      0.0      0.0     30.5      0.0      0.0      120      191      0.0      0.0      0.0      0.0        0    281.4      2.3      0.0      0.0
 2014 323    50    41      0.2      8.7      1.4      8.8     10.0        0      2.4     30.6      0.0      0.0     33.3      0.0      0.0      150      208      0.0      0.0      0.0      0.0        0    281.4      2.6      0.0      0.0
 2014 324    51    42      0.2      9.6      1.5      9.3     10.0        0      2.4     34.2      0.0      0.0     37.3      0.0      0.0      190      233      0.0      0.0      0.0      0.0        0    321.6      3.2      0.0      0.0
 2014 325    52    43      0.2     11.3      1.8     10.1     10.0        0      2.5     41.3     14.7      0.0     45.5      0.0      0.0      240      284    102.7     16.4      0.0      0.0        0    334.9      4.2      1.7      0.0
 2014 326    53    44      0.2     12.8      2.0     11.0     10.0        0      2.8     50.7     22.7      0.0     56.3      0.0      0.0      300      352    159.6     25.5      0.0      0.0        1    343.4      5.6      2.8      0.0
 2014 327    54    45      0.2     14.4      2.3     11.7     10.0        0      2.9     60.0     25.4      0.0     66.9      0.0      0.0      370      418    178.9     28.6      0.0      0.0        2    356.1      7.0      3.2      0.0
 2014 328    55    46      0.2     16.2      2.6     12.4     10.0        1      2.9     67.7     31.9     31.9     76.1     36.3     36.3      450      475    227.1     36.3    227.1    227.1        3    373.6      8.4      4.4      4.4
 2014 329    56    47      0.2     13.1      2.1     13.1     10.0        1      2.3     42.9     10.3      0.0     47.9      0.0     36.3      500      299     73.1     11.7      0.0    227.1        3    259.3      5.0      1.4      0.0
 2014 330    57    48      0.2     13.2      2.1     13.8     10.0        1      2.5     47.7     22.2      0.0     53.4      0.0     36.3      550      334    156.7     25.1      0.0    227.1        4    275.3      5.6      2.9      0.0
 2014 331    58    49      0.2     13.6      2.2     14.4     10.0        1      2.7     51.7     32.3      0.0     57.9      0.0     36.3      610      362    229.3     36.7      0.0    227.1        5    290.2      6.2      4.3      0.0
 2014 332    59    50      0.2     13.8      2.2     14.8     10.0        1      2.8     54.0     33.1      0.0     60.6      0.0     36.3      670      379    235.3     37.6      0.0    227.1        6    290.2      6.6      4.5      0.0
 2014 333    60    51      0.2     14.7      2.3     15.3     10.0        1      2.8     58.0     42.7      0.0     65.2      0.0     36.3      740      408    304.1     48.7      0.0    227.1        7    321.5      7.3      6.0      0.0
 2014 334    61    52      0.2     15.3      2.4     16.1     10.0        1      2.9     63.5     47.2      0.0     71.9      0.0     36.3      810      449    338.7     54.2      0.0    227.1        8    342.9      8.4      7.0      0.0
 2014 335    62    53      0.2     15.4      2.5     17.0     10.0        2      3.2     68.3     49.2     49.2     78.0     57.2     93.5      890      487    357.4     57.2    357.4    584.5        9    354.3      9.7      8.0      8.0
 2014 336    63    54      0.2      7.4      1.2     17.9     10.0        2      2.2     24.3      2.8      0.0     26.6      0.0     93.5      920      166     19.5      3.1      0.0    584.5        9    170.3      2.3      0.4      0.0
 2014 337    64    55      0.2      8.2      1.3     18.8     10.0        2      2.6     30.7     10.0      0.0     33.8      0.0     93.5      950      211     70.2     11.2      0.0    584.5        9    231.8      3.0      1.3      0.0
 2014 338    65    56      0.2      8.0      1.3     19.6     10.0        3      3.3     38.0     15.6     15.6     41.9     17.7    111.2      990      262    110.5     17.7    110.5    695.0        9    264.9      4.0      2.1      2.1
 2014 339    66    57      0.2      5.9      0.9     20.5     10.0        3      3.4     29.7      3.1      0.0     32.4      0.0    111.2     1020      203     21.6      3.5      0.0    695.0        9    228.8      2.7      0.4      0.0
 2014 340    67    58      0.2      6.7      1.1     21.3     10.0        3      3.9     38.1     10.0      0.0     41.7      0.0    111.2     1060      261     70.7     11.3      0.0    695.0        9    267.1      3.6      1.3      0.0
 2014 341    68    59      0.2      7.2      1.1     22.2     10.0        3      4.5     46.8     15.3      0.0     51.4      0.0    111.2     1110      321    109.0     17.4      0.0    695.0        9    299.8      4.7      2.1      0.0
 2014 342    69    60      0.2      7.8      1.2     23.1     10.0        4      4.9     55.2     18.2     18.2     60.9     20.9    132.1     1170      381    130.5     20.9    130.5    825.5        9    370.0      5.7      2.7      2.7
 2014 343    70    61      0.2      6.0      1.0     23.8     10.0        4      5.1     44.7      4.5      0.0     48.4      0.0    132.1     1220      303     31.9      5.1      0.0    825.5        9    291.0      3.7      0.6      0.0
 2014 344    71    62      0.2      6.3      1.0     24.2     10.0        4      5.3     48.8     11.8      0.0     53.0      0.0    132.1     1270      331     83.2     13.3      0.0    825.5        9    398.5      4.2      1.5      0.0
 2014 345    72    63      0.2      6.8      1.1     24.7     10.0        5      5.4     54.5     17.3     17.3     59.3     19.5    151.6     1330      371    121.8     19.5    121.8    947.3        9    398.5      4.8      2.2      2.2
 2014 346    73    64      0.2      5.2      0.8     25.0     10.0        5      5.1     39.6      2.6      0.0     42.6      0.0    151.6     1370      266     18.1      2.9      0.0    947.3        9    394.7      3.0      0.3      0.0
 2014 347    74    65      0.2      5.9      0.9     25.5     10.0        5      5.3     46.0      6.4      0.0     49.7      0.0    151.6     1420      311     45.1      7.2      0.0    947.3        9    394.7      3.7      0.8      0.0
 2014 348    75    66      0.2      6.5      1.0     25.9     10.0        5      5.4     51.4      6.8      0.0     55.8      0.0    151.6     1480      349     47.7      7.6      0.0    947.3        9    458.9      4.4      0.9      0.0
 2014 349    76    67      0.2      7.3      1.2     26.4     10.0        6      5.5     58.8     13.5     13.5     64.1     15.2    166.8     1540      400     95.0     15.2     95.0   1042.3        9    458.9      5.2      1.7      1.7
 2014 350    77    68      0.2      6.7      1.1     26.9     10.0        6      5.2     51.5      0.0      0.0     55.9      0.0    166.8     1600      349      0.0      0.0      0.0   1042.3        9    465.1      4.4      0.0      0.0
 2014 351    78    69      0.2      7.9      1.3     27.6     10.0        6      5.3     60.9      7.5      0.0     66.5      0.0    166.8     1670      416     52.4      8.4      0.0   1042.3        9    518.1      5.6      0.9      0.0
 2014 352    79    70      0.2      8.4      1.3     28.1     10.0        7      5.5     67.7     13.8     13.8     74.3     15.6    182.3     1740      464     97.4     15.6     97.4   1139.7        9    582.7      6.6      1.7      1.7
 2014 353    80    71      0.2      7.2      1.2     28.7     10.0        7      6.0     63.3      0.0      0.0     69.5      0.0    182.3     1810      435      0.0      0.0      0.0   1139.7        9    547.9      6.2      0.0      0.0
 2014 354    81    72      0.2      7.7      1.2     29.5     10.0        7      7.0     77.7     13.6      0.0     85.8      0.0    182.3     1900      536     96.2     15.4      0.0   1139.7        9    600.9      8.1      1.8      0.0
 2014 355    82    73      0.2      8.4      1.3     30.3     10.0        7      7.9     96.2     36.5      0.0    106.7      0.0    182.3     2010      667    257.5     41.2      0.0   1139.7       10    656.8     10.5      4.7      0.0
 2014 356    83    74      0.2      9.3      1.5     31.2     10.0        8      8.7    116.4     54.9     54.9    129.6     62.5    244.8     2140      810    390.5     62.5    390.5   1530.1       11    715.9     13.2      7.5      7.5
 2014 357    84    75      0.2      6.6      1.1     31.9     10.0        8      8.1     78.0     13.2      0.0     85.6      0.0    244.8     2230      535     93.0     14.9      0.0   1530.1       11    499.9      7.6      1.7      0.0
 2014 358    85    76      0.2      7.6      1.2     32.7     10.0        9      8.8     97.0     29.9     29.9    106.7     33.9    278.7     2340      667    211.9     33.9    211.9   1742.1       12    571.0      9.7      4.0      4.0
 2014 359    86    77      0.2      6.0      1.0     33.5     10.0        9      9.1     80.7     10.8      0.0     87.8      0.0    278.7     2430      549     76.5     12.2      0.0   1742.1       12    582.8      7.1      1.5      0.0
 2014 360    87    78      0.2      6.5      1.0     34.3     10.0        9     10.2     98.0     32.2      0.0    106.8      0.0    278.7     2540      668    228.9     36.6      0.0   1742.1       13    759.3      8.9      4.4      0.0
 2014 361    88    79      0.2      7.7      1.2     35.2     10.0        9     11.1    124.2     45.6      0.0    136.2      0.0    278.7     2680      851    325.6     52.1      0.0   1742.1       14    917.5     12.1      6.5      0.0
 2014 362    89    80      0.2      8.7      1.4     36.0     10.0        9     12.0    151.5     59.4      0.0    167.2      0.0    278.7     2850     1045    426.3     68.2      0.0   1742.1       15   1050.9     15.7      8.8      0.0
 2014 363    90    81      0.2      9.9      1.6     36.9     10.0       10     12.9    183.7     73.7     73.7    203.6     85.2    363.9     3050     1273    532.5     85.2    532.5   2274.6       17   1186.8     20.0     11.5     11.5
 2014 364    91    82      0.2      7.7      1.2     37.9     10.0       10     11.6    130.6      8.7      0.0    142.7      0.0    363.9     3190      892     61.0      9.8      0.0   2274.6       17   1200.6     12.1      1.1      0.0
 2014 365    92    83      0.2      8.7      1.4     38.9     10.0       10     12.2    154.2     52.6      0.0    170.9      0.0    363.9     3360     1068    370.0     59.2      0.0   2274.6       18   1409.0     16.7      6.6      0.0
 2015 001    93    84      0.2      8.7      1.4     38.9     10.0       10     12.2    154.2     52.6      0.0    170.9      0.0    363.9     3360     1068    370.0     59.2      0.0   2274.6       18   1409.0     16.7      6.6      0.0

*DSSAT Cropping System Model Ver. 4.8.5.017 pre-release  JUN 28, 2025 01:29:44

*RUN   2        : Radiance                  CRGRO048 UFBA1601    1
 MODEL          : CRGRO048 - Strawberry
 EXPERIMENT     : UFBA1601 SR 2016 BALM STRAWBERRY VARIETY TRIAL
 DATA PATH      : /data/Strawberry/
 TREATMENT  1   : Radiance                  CRGRO048
  
@YEAR DOY   DAS   DAP    PDMCD    AFPWD    ADPWD    PAGED    XMAGE    CHNUM    TOSHN    TOWSH    MTDSH    HSHEL    TOPOW    HPODW    CHPDT    CPODN    TOFPW    MTFPW    MTDPW    HFPOW    CHFPW    CMFNM    TOSDN    TOWSD    MTDSD    HSDWT
 2016 311    38    29      0.0      0.0      0.0      0.0     10.0        0      0.0      0.0      0.0      0.0      0.0      0.0      0.0        0        0      0.0      0.0      0.0      0.0        0      0.0      0.0      0.0      0.0
 2016 312    39    30      0.2      0.0      0.0      0.9     10.0        0      0.2      0.0      0.0      0.0      0.0      0.0      0.0        0        0      0.0      0.0      0.0      0.0        0      0.0      0.0      0.0      0.0
 2016 313    40    31      0.2      0.3      0.1      1.7     10.0        0      0.4      0.2      0.0      0.0      0.2      0.0      0.0        0        1      0.0      0.0      0.0      0.0        0      0.0      0.0      0.0      0.0
 2016 314    41    32      0.2      0.6      0.1      2.5     10.0        0      0.6      0.6      0.0      0.0      0.6      0.0      0.0        0        4      0.0      0.0      0.0      0.0        0      0.0      0.0      0.0      0.0
 2016 315    42    33      0.2      0.8      0.1      3.4     10.0        0      1.0      1.2      0.0      0.0      1.2      0.0      0.0        0        7      0.0      0.0      0.0      0.0        0      0.0      0.0      0.0      0.0
 2016 316    43    34      0.2      1.0      0.2      4.2     10.0        0      1.3      2.0      0.0      0.0      2.0      0.0      0.0        0       13      0.0      0.0      0.0      0.0        0      1.8      0.0      0.0      0.0
 2016 317    44    35      0.2      1.2      0.2      5.0     10.0        0      1.6      3.1      0.0      0.0      3.1      0.0      0.0        0       20      0.0      0.0      0.0      0.0        0      1.8      0.0      0.0      0.0
 2016 318    45    36      0.2      1.8      0.3      5.8     10.0        0      1.7      4.8      0.0      0.0      4.8      0.0      0.0        0       30      0.0      0.0      0.0      0.0        0     31.4      0.0      0.0      0.0
 2016 319    46    37      0.2      2.7      0.4      6.7     10.0        0      1.8      7.4      0.0      0.0      7.6      0.0      0.0       10       47      0.0      0.0      0.0      0.0        0     61.9      0.1      0.0      0.0
 2016 320    47    38      0.2      4.0      0.6      7.6     10.0        0      1.9     11.5      0.0      0.0     11.9      0.0      0.0       20       74      0.0      0.0      0.0      0.0        0     98.9      0.4      0.0      0.0
 2016 321    48    39      0.2      5.0      0.8      8.3     10.0        0      2.0     15.1      0.0      0.0     15.8      0.0      0.0       40       99      0.0      0.0      0.0      0.0        0    150.1      0.7      0.0      0.0
 2016 322    49    40      0.2      6.1      1.0      9.1     10.0        1      2.1     19.6      0.0      0.0     20.8      0.0      0.0       60      130      0.0      0.0      0.0      0.0        0    207.8      1.2      0.0      0.0
 2016 323    50    41      0.2      7.6      1.2      9.9     10.0        1      2.3     25.9      0.0      0.0     27.9      0.0      0.0       90      174      0.0      0.0      0.0      0.0        0    256.8      2.0      0.0      0.0
 2016 324    51    42      0.2      9.0      1.4     10.7     10.0        1      2.5     32.7      0.4      0.0     35.6      0.0      0.0      130      223      2.9      0.5      0.0      0.0        0    269.5      2.9      0.1      0.0
 2016 325    52    43      0.2      9.9      1.6     11.3     10.0        1      2.6     37.2      6.1      0.0     40.7      0.0      0.0      170      255     43.1      6.9      0.0      0.0        0    290.9      3.5      0.8      0.0
 2016 326    53    44      0.2     10.8      1.7     11.8     10.0        2      2.6     41.0     12.0     12.0     45.0     13.5     13.5      220      281     84.5     13.5     84.5     84.5        0    312.0      4.1      1.5      1.5
 2016 327    54    45      0.2      9.5      1.5     12.3     10.0        2      2.4     32.8      0.0      0.0     35.9      0.0     13.5      260      224      0.0      0.0      0.0     84.5        0    250.1      3.1      0.0      0.0
 2016 328    55    46      0.2     10.3      1.6     13.0     10.0        2      2.6     38.8      7.0      0.0     42.8      0.0     13.5      300      267     49.5      7.9      0.0     84.5        0    274.5      3.9      0.9      0.0
 2016 329    56    47      0.2     11.2      1.8     13.9     10.0        3      2.9     46.6     18.6     18.6     51.6     20.9     34.4      350      323    130.6     20.9    130.6    215.1        0    298.4      5.0      2.3      2.3
 2016 330    57    48      0.2      8.9      1.4     14.7     10.0        3      2.7     34.6     11.3      0.0     38.2      0.0     34.4      390      239     79.4     12.7      0.0    215.1        0    238.6      3.6      1.4      0.0
 2016 331    58    49      0.2      9.4      1.5     15.6     10.0        3      3.1     42.0     22.4      0.0     46.6      0.0     34.4      440      291    158.4     25.3      0.0    215.1        1    279.4      4.5      2.9      0.0
 2016 332    59    50      0.2      9.2      1.5     16.3     10.0        3      3.6     47.8     25.9      0.0     53.3      0.0     34.4      490      333    184.2     29.5      0.0    215.1        2    289.8      5.5      3.6      0.0
 2016 333    60    51      0.2      9.2      1.5     17.2     10.0        4      4.1     53.9     30.3     30.3     60.4     34.9     69.3      550      378    218.1     34.9    218.1    433.2        3    301.4      6.6      4.6      4.6
 2016 334    61    52      0.2      5.6      0.9     18.0     10.0        4      3.6     30.3      4.3      0.0     32.9      0.0     69.3      580      206     30.9      4.9      0.0    433.2        3    204.0      2.6      0.6      0.0
 2016 335    62    53      0.2      6.7      1.1     18.8     10.0        4      4.0     38.7      9.9      0.0     42.2      0.0     69.3      620      264     70.6     11.3      0.0    433.2        3    253.3      3.5      1.3      0.0
 2016 336    63    54      0.2      7.6      1.2     19.6     10.0        5      4.3     47.7     15.6     15.6     52.2     17.8     87.1      670      327    111.5     17.8    111.5    544.7        3    301.9      4.5      2.2      2.2
 2016 337    64    55      0.2      6.2      1.0     20.4     10.0        5      4.4     40.6      6.0      0.0     43.8      0.0     87.1      710      274     42.5      6.8      0.0    544.7        3    308.0      3.2      0.8      0.0
 2016 338    65    56      0.2      6.9      1.1     21.2     10.0        5      4.9     50.0     11.6      0.0     54.3      0.0     87.1      760      339     82.2     13.1      0.0    544.7        3    389.8      4.2      1.5      0.0
 2016 339    66    57      0.2      8.0      1.3     22.0     10.0        5      5.3     62.2     18.2      0.0     68.0      0.0     87.1      830      425    129.5     20.7      0.0    544.7        3    462.7      5.8      2.5      0.0
 2016 340    67    58      0.2      9.2      1.5     22.8     10.0        6      5.6     75.1     21.3     21.3     82.7     24.4    111.6      910      517    152.7     24.4    152.7    697.4        3    511.8      7.6      3.1      3.1
 2016 341    68    59      0.2      8.4      1.3     23.6     10.0        6      5.5     67.9      9.4      0.0     74.2      0.0    111.6      980      463     66.1     10.6      0.0    697.4        3    475.0      6.2      1.2      0.0
 2016 342    69    60      0.2      9.4      1.5     24.5     10.0        6      6.1     83.0     21.2      0.0     91.1      0.0    111.6     1070      569    149.2     23.9      0.0    697.4        4    530.7      8.1      2.7      0.0
 2016 343    70    61      0.2      9.6      1.5     25.4     10.0        7      7.1     99.1     32.5     32.5    109.1     36.9    148.5     1180      682    230.5     36.9    230.5    927.9        5    627.1     10.0      4.3      4.3
 2016 344    71    62      0.2      7.3      1.2     26.1     10.0        7      7.2     76.6     15.4      0.0     83.5      0.0    148.5     1260      522    108.3     17.3      0.0    927.9        5    574.3      6.9      1.9      0.0
 2016 345    72    63      0.2      7.8      1.2     26.8     10.0        7      7.8     89.0     32.8      0.0     97.5      0.0    148.5     1360      609    230.8     36.9      0.0    927.9        6    650.8      8.4      4.2      0.0
 2016 346    73    64      0.2      8.8      1.4     27.6     10.0        7      8.4    106.5     49.1      0.0    117.3      0.0    148.5     1480      733    347.4     55.6      0.0    927.9        7    716.5     10.8      6.5      0.0
 2016 347    74    65      0.2     10.0      1.6     28.4     10.0        8      8.7    125.8     60.6     60.6    139.6     69.2    217.7     1620      872    432.8     69.2    432.8   1360.7        9    788.3     13.8      8.7      8.7
 2016 348    75    66      0.2      7.1      1.1     29.2     10.0        8      8.0     83.2     10.9      0.0     90.2      0.0    217.7     1710      564     76.3     12.2      0.0   1360.7        9    610.9      7.1      1.3      0.0
 2016 349    76    67      0.2      8.2      1.3     30.1     10.0        8      8.8    105.8     23.4      0.0    115.4      0.0    217.7     1830      722    164.3     26.3      0.0   1360.7       10    785.0      9.6      2.9      0.0
 2016 350    77    68      0.2      8.9      1.4     31.0     10.0        9     10.1    131.1     43.7     43.7    143.7     49.5    267.2     1970      898    309.3     49.5    309.3   1670.0       11    929.0     12.6      5.7      5.7
 2016 351    78    69      0.2      7.2      1.2     31.7     10.0        9     10.0    106.5     18.9      0.0    115.8      0.0    267.2     2090      723    132.6     21.2      0.0   1670.0       11    832.2      9.2      2.3      0.0
 2016 352    79    70      0.2      8.3      1.3     32.5     10.0        9     10.9    132.3     36.6      0.0    144.8      0.0    267.2     2230      905    257.9     41.3      0.0   1670.0       12    920.5     12.5      4.7      0.0
 2016 353    80    71      0.2      9.5      1.5     33.3     10.0        9     11.4    158.1     52.1      0.0    174.2      0.0    267.2     2400     1088    370.1     59.2      0.0   1670.0       13    979.0     16.1      7.1      0.0
 2016 354    81    72      0.2     10.6      1.7     34.0     10.0       10     12.0    184.9     70.3     70.3    204.6     80.2    347.4     2600     1279    501.3     80.2    501.3   2171.3       15   1101.1     19.7      9.9      9.9
 2016 355    82    73      0.2      8.7      1.4     34.9     10.0       10     11.2    142.9     21.5      0.0    156.1      0.0    347.4     2760      976    151.4     24.2      0.0   2171.3       16    941.3     13.3      2.8      0.0
 2016 356    83    74      0.2      9.9      1.6     35.8     10.0       10     12.0    171.8     60.3      0.0    188.6      0.0    347.4     2950     1179    425.4     68.1      0.0   2171.3       17   1151.8     16.8      7.8      0.0
 2016 357    84    75      0.2     10.4      1.7     36.6     10.0       11     13.4    201.0     94.0     94.0    221.9    106.5    453.9     3170     1387    665.9    106.5    665.9   2837.2       19   1320.1     20.9     12.6     12.6
 2016 358    85    76      0.2      7.5      1.2     37.4     10.0       11     12.3    136.6     25.0      0.0    148.3      0.0    453.9     3320      927    174.4     27.9      0.0   2837.2       20   1042.7     11.7      2.9      0.0
 2016 359    86    77      0.2      8.9      1.4     38.2     10.0       11     13.0    169.6     46.2      0.0    185.2      0.0    453.9     3510     1158    324.5     51.9      0.0   2837.2       21   1266.3     15.7      5.7      0.0
 2016 360    87    78      0.2     10.3      1.6     39.0     10.0       11     13.8    207.0     60.7      0.0    227.7      0.0    453.9     3740     1423    429.6     68.7      0.0   2837.2       22   1266.3     20.7      8.1      0.0
 2016 361    88    79      0.2     11.5      1.8     39.8     10.0       12     14.4    240.4     87.9     87.9    266.1    100.3    554.2     4010     1663    626.6    100.3    626.6   3463.8       24   1416.8     25.7     12.4     12.4
 2016 362    89    80      0.2      9.6      1.5     40.6     10.0       12     13.2    185.3     30.4      0.0    202.8      0.0    554.2     4210     1267    214.0     34.2      0.0   3463.8       25   1192.7     17.4      3.8      0.0
 2016 363    90    81      0.2     10.7      1.7     41.4     10.0       12     14.3    221.8     78.4      0.0    243.9      0.0    554.2     4450     1524    552.8     88.4      0.0   3463.8       27   1417.6     22.1     10.0      0.0
 2016 364    91    82      0.2     11.4      1.8     42.3     10.0       13     15.8    260.2    119.3    119.3    287.9    135.3    689.5     4740     1799    845.6    135.3    845.6   4309.4       30   1613.9     27.7     16.0     16.0
 2016 365    92    83      0.2      7.5      1.2     42.7     10.0       13     13.7    150.6     28.4      0.0    163.7      0.0    689.5     4900     1023    199.7     32.0      0.0   4309.4       31   1208.1     13.1      3.5      0.0
 2016 366    93    84      0.2      8.3      1.3     43.1     10.0       13     13.9    168.2     30.1      0.0    183.6      0.0    689.5     5080     1148    211.9     33.9      0.0   4309.4       32   1208.1     15.4      3.8      0.0
 2017 001    94    85      0.2      9.1      1.5     43.9     10.0       13     15.1    200.7     55.4      0.0    220.3      0.0    689.5     5300     1377    389.5     62.3      0.0   4309.4       33   1311.4     19.6      6.9      0.0
 2017 002    95    86      0.2     10.0      1.6     44.7     10.0       14     16.2    235.5     86.3     86.3    260.2     97.9    787.4     5560     1626    612.0     97.9    612.0   4921.4       35   1410.4     24.7     11.6     11.6
 2017 003    96    87      0.2      8.2      1.3     45.5     10.0       14     15.4    184.5     34.5      0.0    201.8      0.0    787.4     5760     1261    240.5     38.5      0.0   4921.4       36   1186.7     17.3      4.0      0.0
 2017 004    97    88      0.2      8.8      1.4     46.3     10.0       14     17.1    217.9     69.7      0.0    239.3      0.0    787.4     6000     1496    488.7     78.2      0.0   4921.4       38   1382.7     21.4      8.5      0.0
 2017 005    98    89      0.2      9.4      1.5     47.1     10.0       15     18.7    255.1    118.9    118.9    281.3    134.3    921.7     6280     1758    839.1    134.3    839.1   5760.5       41   1784.2     26.2     15.3     15.3
 2017 006    99    90      0.2      6.3      1.0     47.8     10.0       15     18.1    167.4     39.4      0.0    182.3      0.0    921.7     6460     1139    276.5     44.2      0.0   5760.5       42   1279.1     14.9      4.9      0.0
 2017 007   100    91      0.2      7.0      1.1     48.3     10.0       15     18.3    187.8     63.4      0.0    205.2      0.0    921.7     6670     1282    447.6     71.6      0.0   5760.5       44   1493.4     17.3      8.2      0.0
 2017 008   101    92      0.2      7.2      1.2     48.5     10.0       15     18.4    193.9     64.4      0.0    212.0      0.0    921.7     6880     1325    454.9     72.8      0.0   5760.5       46   1493.4     18.1      8.3      0.0
 2017 009   102    93      0.2      7.8      1.2     48.9     10.0       16     18.7    212.6     67.6     67.6    233.2     76.4    998.1     7110     1457    477.6     76.4    477.6   6238.1       48   1663.8     20.6      8.9      8.9
 2017 010   103    94      0.2      6.4      1.0     49.5     10.0       16     18.0    170.1     20.2      0.0    185.1      0.0    998.1     7300     1157    142.1     22.7      0.0   6238.1       49   1351.9     15.0      2.5      0.0
 2017 011   104    95      0.2      7.1      1.1     50.3     10.0       16     19.7    206.1     41.4      0.0    225.4      0.0    998.1     7530     1409    291.4     46.6      0.0   6238.1       50   1557.4     19.3      5.2      0.0
 2017 012   105    96      0.2      7.9      1.3     51.1     10.0       17     21.8    250.0     70.9     70.9    274.9     80.2   1078.3     7800     1718    501.6     80.2    501.6   6739.6       52   1831.6     25.0      9.3      9.3
 2017 013   106    97      0.2      7.4      1.2     52.0     10.0       17     21.4    230.7     37.7      0.0    252.4      0.0   1078.3     8050     1578    265.3     42.4      0.0   6739.6       53   1799.9     21.7      4.7      0.0
 2017 014   107    98      0.2      8.8      1.4     52.8     10.0       17     22.7    288.8    120.7      0.0    317.7      0.0   1078.3     8370     1986    850.3    136.0      0.0   6739.6       56   2176.9     28.9     15.4      0.0
 2017 015   108    99      0.2      9.8      1.6     53.7     10.0       17     24.8    352.0    135.1      0.0    389.5      0.0   1078.3     8760     2434    958.9    153.4      0.0   6739.6       59   2290.1     37.5     18.4      0.0
 2017 016   109   100      0.2     10.8      1.7     54.6     10.0       18     26.5    413.5    182.1    182.1    459.8    208.7   1287.1     9220     2874   1304.5    208.7   1304.5   8044.1       64   2796.1     46.3     26.6     26.6
 2017 017   110   101      0.2      8.4      1.3     55.4     10.0       18     24.0    294.9     35.7      0.0    322.4      0.0   1287.1     9540     2015    253.8     40.6      0.0   8044.1       65   2378.6     27.4      5.0      0.0
 2017 018   111   102      0.2      9.4      1.5     56.2     10.0       18     26.3    362.2     81.9      0.0    398.3      0.0   1287.1     9940     2489    581.7     93.1      0.0   8044.1       67   2719.5     36.1     11.1      0.0
 2017 019   112   103      0.2     10.1      1.6     57.0     10.0       19     29.1    425.5    143.2    143.2    471.0    163.0   1450.1    10410     2944   1018.9    163.0   1018.9   9063.0       71   2719.5     45.5     19.8     19.8
 2017 020   113   104      0.2      8.6      1.4     57.8     10.0       19     27.7    347.4     65.5      0.0    381.0      0.0   1450.1    10790     2381    461.7     73.9      0.0   9063.0       73   2402.4     33.6      8.3      0.0
 2017 021   114   105      0.2      9.7      1.6     58.6     10.0       19     29.9    423.3    151.8      0.0    466.3      0.0   1450.1    11260     2915   1071.0    171.4      0.0   9063.0       77   2742.8     43.0     19.6      0.0
 2017 022   115   106      0.2     10.7      1.7     59.4     10.0       19     30.9    476.8    184.9      0.0    531.3      0.0   1450.1    11790     3320   1315.3    210.4      0.0   9063.0       81   3054.6     54.5     25.5      0.0
 2017 023   116   107      0.2     11.8      1.9     60.4     10.0       20     33.5    563.1    297.2    297.2    629.7    339.6   1789.6    12420     3936   2122.2    339.6   2122.2  11185.2       88   3423.2     66.6     42.3     42.3
 2017 024   117   108      0.2      7.5      1.2     61.1     10.0       20     29.6    323.7     85.1      0.0    354.2      0.0   1789.6    12770     2214    599.9     96.0      0.0  11185.2       90   2537.4     30.5     10.9      0.0
 2017 025   118   109      0.2      8.2      1.3     61.8     10.0       20     32.3    384.0     92.7      0.0    422.0      0.0   1789.6    13190     2638    654.9    104.8      0.0  11185.2       92   2959.4     38.0     12.1      0.0
 2017 026   119   110      0.2      9.4      1.5     62.7     10.0       21     34.3    467.8    179.2    179.2    518.2    203.2   1992.8    13710     3239   1269.7    203.2   1269.7  12455.0       96   3356.2     50.4     23.9     23.9
 2017 027   120   111      0.2      7.6      1.2     63.6     10.0       21     32.8    362.3     68.0      0.0    397.7      0.0   1992.8    14110     2486    478.2     76.5      0.0  12455.0       98   3023.0     35.4      8.5      0.0
 2017 028   121   112      0.2      8.0      1.3     64.1     10.0       21     34.3    398.3    129.4      0.0    438.4      0.0   1992.8    14550     2740    914.5    146.3      0.0  12455.0      102   3252.5     40.1     17.0      0.0
 2017 029   122   113      0.2      8.4      1.3     64.5     10.0       21     35.1    428.2    134.5      0.0    472.4      0.0   1992.8    15020     2953    951.8    152.3      0.0  12455.0      106   3252.5     44.2     17.8      0.0
 2017 030   123   114      0.2      8.7      1.4     65.0     10.0       22     36.9    465.6    187.1    187.1    515.1    212.9   2205.7    15540     3220   1330.5    212.9   1330.5  13785.5      111   3686.3     49.6     25.8     25.8
 2017 031   124   115      0.2      6.6      1.1     65.4     10.0       22     32.9    319.2     60.9      0.0    348.1      0.0   2205.7    15890     2176    426.3     68.2      0.0  13785.5      113   3196.3     29.0      7.3      0.0
 2017 032   125   116      0.2      7.2      1.2     66.0     10.0       22     35.4    372.4     66.0      0.0    408.7      0.0   2205.7    16300     2554    463.8     74.2      0.0  13785.5      115   3196.3     36.3      8.2      0.0
 2017 033   126   117      0.2      8.3      1.3     66.7     10.0       23     37.9    453.8    155.8    155.8    500.5    174.7   2380.4    16800     3128   1091.9    174.7   1091.9  14877.4      119   3617.2     46.7     18.9     18.9
 2017 034   127   118      0.2      7.1      1.1     67.5     10.0       23     36.5    377.2     81.3      0.0    415.0      0.0   2380.4    17210     2594    569.2     91.1      0.0  14877.4      121   3140.7     37.8      9.7      0.0
 2017 035   128   119      0.2      8.4      1.3     68.3     10.0       23     38.8    469.0    161.2      0.0    518.2      0.0   2380.4    17730     3239   1133.7    181.4      0.0  14877.4      125   3739.3     49.2     20.2      0.0
 2017 036   129   120      0.2      9.5      1.5     69.2     10.0       23     41.4    564.8    243.9      0.0    627.7      0.0   2380.4    18360     3923   1730.3    276.9      0.0  14877.4      132   4213.8     62.9     32.9      0.0
 2017 037   130   121      0.2     10.3      1.7     69.9     10.0       24     44.3    655.6    293.3    293.3    733.2    336.2   2716.6    19090     4582   2101.3    336.2   2101.3  16978.7      140   4563.0     77.5     42.9     42.9
 2017 038   131   122      0.2      8.2      1.3     70.8     10.0       24     38.8    460.6     79.6      0.0    507.5      0.0   2716.6    19600     3172    566.9     90.7      0.0  16978.7      142   3485.0     46.8     11.2      0.0
 2017 039   132   123      0.2      9.5      1.5     71.6     10.0       24     41.2    566.5    188.0      0.0    627.6      0.0   2716.6    20230     3923   1342.6    214.8      0.0  16978.7      147   4012.5     61.2     26.8      0.0
 2017 040   133   124      0.2     10.8      1.7     72.5     10.0       25     44.0    684.5    282.4    282.4    761.4    323.8   3040.4    20990     4759   2024.0    323.8   2024.0  19002.8      154   4567.1     76.8     41.5     41.5
 2017 041   134   125      0.2      8.1      1.3     73.2     10.0       25     39.6    468.6     62.2      0.0    512.6      0.0   3040.4    21500     3204    438.6     70.2      0.0  19002.8      156   3777.0     44.0      8.0      0.0
 2017 042   135   126      0.2      9.0      1.4     73.8     10.0       25     42.3    556.7    141.8      0.0    612.0      0.0   3040.4    22110     3825   1001.2    160.2      0.0  19002.8      160   4290.9     55.3     18.4      0.0
 2017 043   136   127      0.2     10.1      1.6     74.6     10.0       25     45.3    664.5    225.7      0.0    734.0      0.0   3040.4    22840     4588   1596.9    255.5      0.0  19002.8      166   4779.3     69.5     29.8      0.0
 2017 044   137   128      0.2     11.3      1.8     75.4     10.0       26     47.9    779.9    317.9    317.9    868.0    361.7   3402.1    23710     5425   2260.5    361.7   2260.5  21263.3      174   5209.2     88.1     43.8     43.8
 2017 045   138   129      0.2      9.1      1.5     76.3     10.0       26     42.7    564.9    155.4      0.0    624.5      0.0   3402.1    24330     3903   1095.9    175.4      0.0  21263.3      178   4262.5     59.6     20.0      0.0
 2017 046   139   130      0.2     10.4      1.7     77.1     10.0       26     44.7    663.6    280.8      0.0    741.2      0.0   3402.1    25070     4632   1982.1    317.1      0.0  21263.3      185   4764.9     77.6     36.3      0.0
 2017 047   140   131      0.2     10.9      1.8     77.7     10.0       27     47.1    735.9    398.3    398.3    823.9    450.3   3852.4    25890     5149   2814.3    450.3   2814.3  24077.6      195   5292.2     87.9     52.0     52.0
 2017 048   141   132      0.2      7.1      1.1     78.2     10.0       27     38.5    394.2      0.0      0.0    437.5      0.0   3852.4    26330     2734      0.0      0.0      0.0  24077.6      195   3927.0     43.2      0.0      0.0
 2017 049   142   133      0.2      8.3      1.3     78.9     10.0       27     40.0    475.2    121.1      0.0    530.5      0.0   3852.4    26860     3316    847.1    135.5      0.0  24077.6      198   4433.7     55.3     14.4      0.0
 2017 050   143   134      0.2      9.8      1.6     79.8     10.0       27     42.2    590.5    237.6      0.0    663.4      0.0   3852.4    27520     4146   1675.0    268.0      0.0  24077.6      204   4869.9     72.9     30.4      0.0
 2017 051   144   135      0.2     11.2      1.8     80.6     10.0       28     44.7    706.8    347.6    347.6    797.6    395.2   4247.6    28320     4985   2469.9    395.2   2469.9  26547.5      212   5258.6     90.8     47.6     47.6
 2017 052   145   136      0.2      8.3      1.3     81.4     10.0       28     38.0    449.0     87.1      0.0    507.2      0.0   4247.6    28830     3170    617.9     98.9      0.0  26547.5      214   4069.3     58.2     11.7      0.0
 2017 053   146   137      0.2      9.2      1.5     82.4     10.0       28     39.1    500.0    176.0      0.0    573.3      0.0   4247.6    29400     3583   1258.4    201.3      0.0  26547.5      219   4517.3     73.2     25.3      0.0
 2017 054   147   138      0.2     10.7      1.7     83.2     10.0       29     39.7    589.1    273.5    273.5    676.6    315.3   4562.9    30080     4229   1970.7    315.3   1970.7  28518.1      226   5020.5     87.6     41.9     41.9
 2017 055   148   139      0.2      8.8      1.4     83.9     10.0       29     34.7    430.0    184.2      0.0    489.0      0.0   4562.9    30570     3056   1321.3    211.4      0.0  28518.1      231   3646.2     59.1     27.2      0.0
 2017 056   149   140      0.2     10.6      1.7     84.8     10.0       29     36.7    548.1    293.2      0.0    622.2      0.0   4562.9    31190     3889   2114.4    338.3      0.0  28518.1      239   4588.2     74.1     45.1      0.0
 2017 057   150   141      0.2     11.7      1.9     85.6     10.0       29     40.2    659.4    387.1      0.0    750.6      0.0   4562.9    31940     4691   2810.2    449.6      0.0  28518.1      249   4588.2     91.2     62.6      0.0
 2017 058   151   142      0.2     12.8      2.0     86.4     10.0       30     42.2    757.4    473.9    473.9    865.7    554.2   5117.1    32810     5411   3463.6    554.2   3463.6  31981.8      262   4947.8    108.3     80.3     80.3
 2017 059   152   143      0.2      7.9      1.3     87.2     10.0       30     31.2    358.7     56.6      0.0    396.4      0.0   5117.1    33210     2477    404.5     64.7      0.0  31981.8      264   2861.6     37.7      8.1      0.0
 2017 060   153   144      0.2      9.3      1.5     87.9     10.0       30     32.8    441.1    140.7      0.0    489.5      0.0   5117.1    33700     3059   1008.5    161.4      0.0  31981.8      268   3177.3     48.4     20.7      0.0
 2017 061   154   145      0.2     10.7      1.7     88.8     10.0       31     35.1    538.6    199.1    199.1    599.8    228.5   5345.6    34300     3749   1428.0    228.5   1428.0  33409.8      274   3509.7     61.3     29.4     29.4
 2017 062   155   146      0.2      8.8      1.4     89.6     10.0       31     32.4    413.5     54.9      0.0    454.7      0.0   5345.6    34750     2842    392.3     62.8      0.0  33409.8      276   2886.9     41.2      7.9      0.0
 2017 063   156   147      0.2      9.5      1.5     90.3     10.0       31     34.8    477.3    157.0      0.0    526.7      0.0   5345.6    35280     3292   1109.0    177.4      0.0  33409.8      280   3364.9     49.4     20.4      0.0
 2017 064   157   148      0.2     10.5      1.7     91.2     10.0       31     37.8    570.0    270.2      0.0    632.6      0.0   5345.6    35910     3954   1923.3    307.7      0.0  33409.8      287   3714.1     62.6     37.5      0.0
 2017 065   158   149      0.2     11.3      1.8     92.0     10.0       32     40.6    655.3    357.5    357.5    731.5    408.8   5754.4    36640     4572   2555.0    408.8   2555.0  35964.8      296   4001.6     76.3     51.3     51.3
 2017 066   159   150      0.2      7.3      1.2     92.8     10.0       32     34.7    370.2     47.0      0.0    403.7      0.0   5754.4    37040     2523    331.3     53.0      0.0  35964.8      297   2777.5     33.6      6.0      0.0
 2017 067   160   151      0.2      8.5      1.4     93.6     10.0       32     37.0    460.1    115.9      0.0    504.4      0.0   5754.4    37540     3152    818.3    130.9      0.0  35964.8      300   3232.8     44.3     15.0      0.0
 2017 068   161   152      0.2      9.8      1.6     94.4     10.0       33     38.8    552.4    189.2    189.2    608.7    214.7   5969.1    38150     3805   1341.9    214.7   1341.9  37306.6      305   3794.8     56.3     25.5     25.5
 2017 069   162   153      0.2      8.5      1.4     95.3     10.0       33     36.7    460.0     85.6      0.0    502.6      0.0   5969.1    38650     3141    602.5     96.4      0.0  37306.6      307   3424.3     42.6     10.8      0.0
 2017 070   163   154      0.2      9.9      1.6     96.1     10.0       33     38.9    561.5    193.2      0.0    617.2      0.0   5969.1    39270     3857   1363.8    218.2      0.0  37306.6      312   3938.2     55.6     25.1      0.0
 2017 071   164   155      0.2     11.2      1.8     96.9     10.0       33     40.4    652.3    279.0      0.0    724.4      0.0   5969.1    39990     4527   1982.4    317.2      0.0  37306.6      319   4393.2     72.1     38.2      0.0
 2017 072   165   156      0.2     12.2      1.9     97.8     10.0       34     40.8    704.1    348.4    348.4    794.3    399.6   6368.6    40780     4965   2497.3    399.6   2497.3  39803.9      327   5227.2     90.3     51.2     51.2
 2017 073   166   157      0.2      8.9      1.4     98.8     10.0       34     36.0    457.7    163.6      0.0    510.5      0.0   6368.6    41290     3191   1151.8    184.3      0.0  39803.9      331   4081.1     52.9     20.7      0.0
 2017 074   167   158      0.2      9.2      1.5     99.2     10.0       34     37.7    496.5    170.4      0.0    555.0      0.0   6368.6    41850     3469   1201.4    192.2      0.0  39803.9      335   4081.1     58.5     21.8      0.0
 2017 075   168   159      0.2      9.8      1.6     99.6     10.0       35     38.7    543.6    178.3    178.3    608.6    201.4   6570.0    42460     3804   1258.7    201.4   1258.7  41062.5      339   4535.8     65.0     23.1     23.1
 2017 076   169   160      0.2      8.3      1.3    100.1     10.0       35     35.7    422.9    111.9      0.0    473.0      0.0   6570.0    42930     2957    787.9    126.1      0.0  41062.5      342   3721.2     50.1     14.1      0.0
 2017 077   170   161      0.2      9.1      1.5    100.8     10.0       35     38.4    500.4    214.4      0.0    560.9      0.0   6570.0    43490     3506   1514.3    242.3      0.0  41062.5      348   4105.2     60.5     27.9      0.0

*DSSAT Cropping System Model Ver. 4.8.5.017 pre-release  JUN 28, 2025 01:29:54

*RUN   3        : Brilliance                CRGRO048 UFBA1601    2
 MODEL          : CRGRO048 - Strawberry
 EXPERIMENT     : UFBA1601 SR 2016 BALM STRAWBERRY VARIETY TRIAL
 DATA PATH      : /data/Strawberry/
 TREATMENT  2   : Brilliance                CRGRO048
  
@YEAR DOY   DAS   DAP    PDMCD    AFPWD    ADPWD    PAGED    XMAGE    CHNUM    TOSHN    TOWSH    MTDSH    HSHEL    TOPOW    HPODW    CHPDT    CPODN    TOFPW    MTFPW    MTDPW    HFPOW    CHFPW    CMFNM    TOSDN    TOWSD    MTDSD    HSDWT
 2016 311    38    29      0.0      0.0      0.0      0.0     10.0        0      0.0      0.0      0.0      0.0      0.0      0.0      0.0        0        0      0.0      0.0      0.0      0.0        0      0.0      0.0      0.0      0.0
 2016 312    39    30      0.2      0.0      0.0      0.9     10.0        0      0.4      0.0      0.0      0.0      0.0      0.0      0.0        0        0      0.0      0.0      0.0      0.0        0      0.0      0.0      0.0      0.0
 2016 313    40    31      0.2      0.3      0.1      1.7     10.0        0      0.8      0.4      0.0      0.0      0.4      0.0      0.0        0        3      0.0      0.0      0.0      0.0        0      0.0      0.0      0.0      0.0
 2016 314    41    32      0.2      0.6      0.1      2.5     10.0        0      1.2      1.2      0.0      0.0      1.2      0.0      0.0        0        7      0.0      0.0      0.0      0.0        0      0.0      0.0      0.0      0.0
 2016 315    42    33      0.2      0.8      0.1      3.4     10.0        0      1.8      2.3      0.0      0.0      2.3      0.0      0.0        0       14      0.0      0.0      0.0      0.0        0      0.0      0.0      0.0      0.0
 2016 316    43    34      0.2      1.0      0.2      4.2     10.0        0      2.5      4.0      0.0      0.0      4.0      0.0      0.0        0       25      0.0      0.0      0.0      0.0        0      2.8      0.0      0.0      0.0
 2016 317    44    35      0.2      1.3      0.2      5.0     10.0        0      3.0      6.2      0.0      0.0      6.2      0.0      0.0       10       39      0.0      0.0      0.0      0.0        0      2.8      0.0      0.0      0.0
 2016 318    45    36      0.2      1.9      0.3      5.8     10.0        0      3.1      9.5      0.0      0.0      9.5      0.0      0.0       20       59      0.0      0.0      0.0      0.0        0     47.6      0.0      0.0      0.0
 2016 319    46    37      0.2      2.8      0.5      6.7     10.0        0      3.3     14.8      0.0      0.0     15.0      0.0      0.0       40       94      0.0      0.0      0.0      0.0        0     93.6      0.2      0.0      0.0
 2016 320    47    38      0.2      4.2      0.7      7.6     10.0        0      3.5     22.9      0.0      0.0     23.4      0.0      0.0       60      147      0.0      0.0      0.0      0.0        0    150.1      0.6      0.0      0.0
 2016 321    48    39      0.2      5.2      0.8      8.3     10.0        0      3.8     30.2      0.0      0.0     31.2      0.0      0.0       90      195      0.0      0.0      0.0      0.0        0    228.0      1.1      0.0      0.0
 2016 322    49    40      0.2      6.4      1.0      9.1     10.0        1      4.0     39.0      0.0      0.0     40.8      0.0      0.0      130      255      0.0      0.0      0.0      0.0        0    317.1      1.8      0.0      0.0
 2016 323    50    41      0.2      7.9      1.3      9.9     10.0        1      4.3     51.8      0.0      0.0     54.7      0.0      0.0      180      342      0.0      0.0      0.0      0.0        0    392.1      3.0      0.0      0.0
 2016 324    51    42      0.2      9.4      1.5     10.7     10.0        1      4.7     65.3      0.7      0.0     69.7      0.0      0.0      250      436      5.0      0.8      0.0      0.0        0    411.4      4.4      0.1      0.0
 2016 325    52    43      0.2     10.1      1.6     11.3     10.0        1      4.9     73.3     11.2      0.0     78.7      0.0      0.0      330      492     77.3     12.4      0.0      0.0        0    444.1      5.4      1.2      0.0
 2016 326    53    44      0.2     10.9      1.7     11.8     10.0        2      4.9     79.4     21.4     21.4     85.6     23.7     23.7      420      535    148.1     23.7    148.1    148.1        1    476.4      6.2      2.2      2.2
 2016 327    54    45      0.2      9.9      1.6     12.3     10.0        2      4.4     65.7      0.0      0.0     70.5      0.0     23.7      490      440      0.0      0.0      0.0    148.1        1    382.9      4.8      0.0      0.0
 2016 328    55    46      0.2     10.5      1.7     13.0     10.0        2      4.9     76.3     12.6      0.0     82.3      0.0     23.7      570      514     86.8     13.9      0.0    148.1        1    420.5      6.0      1.3      0.0
 2016 329    56    47      0.2     10.9      1.7     13.9     10.0        3      5.5     87.7     31.4     31.4     95.3     34.8     58.5      670      596    217.7     34.8    217.7    365.8        2    457.5      7.7      3.4      3.4
 2016 330    57    48      0.2      8.9      1.4     14.7     10.0        3      5.1     66.7     19.9      0.0     72.2      0.0     58.5      740      451    138.1     22.1      0.0    365.8        3    367.0      5.5      2.2      0.0
 2016 331    58    49      0.2      8.9      1.4     15.6     10.0        3      5.9     76.4     37.0      0.0     83.4      0.0     58.5      820      521    259.1     41.5      0.0    365.8        4    429.1      7.0      4.5      0.0
 2016 332    59    50      0.2      8.5      1.4     16.3     10.0        3      6.9     85.4     41.3      0.0     93.8      0.0     58.5      910      587    292.7     46.8      0.0    365.8        5    444.8      8.4      5.5      0.0
 2016 333    60    51      0.2      8.5      1.4     17.2     10.0        4      7.8     96.0     48.7     48.7    106.1     55.7    114.2     1020      663    348.2     55.7    348.2    714.0        6    462.4     10.1      7.0      7.0
 2016 334    61    52      0.2      5.8      0.9     18.0     10.0        4      6.9     59.9      7.7      0.0     63.9      0.0    114.2     1080      399     53.6      8.6      0.0    714.0        6    312.6      4.0      0.9      0.0
 2016 335    62    53      0.2      6.7      1.1     18.8     10.0        4      7.5     74.4     16.6      0.0     79.7      0.0    114.2     1160      498    116.6     18.7      0.0    714.0        6    388.6      5.3      2.1      0.0
 2016 336    63    54      0.2      7.5      1.2     19.6     10.0        5      8.1     89.9     25.6     25.6     96.9     29.0    143.2     1260      605    181.2     29.0    181.2    895.1        7    462.7      6.9      3.4      3.4
 2016 337    64    55      0.2      6.3      1.0     20.4     10.0        5      8.4     80.0     10.8      0.0     84.9      0.0    143.2     1340      531     75.2     12.0      0.0    895.1        7    470.9      4.9      1.2      0.0
 2016 338    65    56      0.2      7.0      1.1     21.2     10.0        5      9.2     96.7     19.9      0.0    103.2      0.0    143.2     1440      645    139.0     22.2      0.0    895.1        8    598.0      6.5      2.3      0.0
 2016 339    66    57      0.2      8.0      1.3     22.0     10.0        5      9.9    118.6     30.4      0.0    127.5      0.0    143.2     1570      797    214.0     34.2      0.0    895.1        9    710.7      8.9      3.8      0.0
 2016 340    67    58      0.2      9.1      1.5     22.8     10.0        6     10.5    142.5     34.7     34.7    154.1     39.4    182.7     1720      963    246.5     39.4    246.5   1141.7       10    784.7     11.6      4.8      4.8
 2016 341    68    59      0.2      8.3      1.3     23.6     10.0        6     10.3    126.9     16.6      0.0    136.4      0.0    182.7     1860      853    115.0     18.4      0.0   1141.7       10    727.6      9.5      1.8      0.0
 2016 342    69    60      0.2      9.1      1.5     24.5     10.0        6     11.3    152.4     35.6      0.0    164.8      0.0    182.7     2020     1030    248.8     39.8      0.0   1141.7       11    811.8     12.5      4.2      0.0
 2016 343    70    61      0.2      9.3      1.5     25.4     10.0        7     13.1    180.4     54.1     54.1    195.7     60.8    243.4     2220     1223    379.7     60.8    379.7   1521.4       12    956.6     15.3      6.7      6.7
 2016 344    71    62      0.2      7.3      1.2     26.1     10.0        7     13.3    144.0     28.3      0.0    154.6      0.0    243.4     2370      966    195.5     31.3      0.0   1521.4       13    873.3     10.6      2.9      0.0
 2016 345    72    63      0.2      7.6      1.2     26.8     10.0        7     14.5    163.6     58.4      0.0    176.5      0.0    243.4     2550     1103    405.0     64.8      0.0   1521.4       15    987.3     12.9      6.4      0.0
 2016 346    73    64      0.2      8.4      1.3     27.6     10.0        7     15.4    191.1     84.2      0.0    207.6      0.0    243.4     2760     1298    589.4     94.3      0.0   1521.4       17   1085.9     16.5     10.1      0.0
 2016 347    74    65      0.2      9.5      1.5     28.4     10.0        8     16.1    222.9    100.9    100.9    243.9    114.2    357.6     3000     1524    713.8    114.2    713.8   2235.1       20   1192.0     21.0     13.3     13.3
 2016 348    75    66      0.2      7.0      1.1     29.2     10.0        8     14.7    154.4     16.5      0.0    165.1      0.0    357.6     3170     1032    115.7     18.5      0.0   2235.1       21    914.7     10.6      2.0      0.0
 2016 349    76    67      0.2      8.0      1.3     30.1     10.0        8     16.1    193.1     35.1      0.0    207.5      0.0    357.6     3380     1297    246.7     39.5      0.0   2235.1       22   1170.6     14.4      4.4      0.0
 2016 350    77    68      0.2      8.6      1.4     31.0     10.0        9     18.5    235.3     67.2     67.2    254.2     75.8    433.5     3630     1589    474.0     75.8    474.0   2709.2       24   1387.3     18.9      8.7      8.7
 2016 351    78    69      0.2      7.4      1.2     31.7     10.0        9     18.3    202.0     32.9      0.0    215.7      0.0    433.5     3850     1348    227.0     36.3      0.0   2709.2       25   1240.2     13.8      3.4      0.0
 2016 352    79    70      0.2      8.3      1.3     32.5     10.0        9     19.9    244.4     58.9      0.0    263.0      0.0    433.5     4110     1644    411.5     65.8      0.0   2709.2       27   1370.3     18.6      7.0      0.0
 2016 353    80    71      0.2      9.2      1.5     33.3     10.0        9     20.9    285.0     82.0      0.0    308.9      0.0    433.5     4420     1931    578.7     92.6      0.0   2709.2       29   1455.9     23.9     10.6      0.0
 2016 354    81    72      0.2     10.2      1.6     34.0     10.0       10     21.9    327.3    107.6    107.6    356.7    122.4    555.8     4780     2230    764.7    122.4    764.7   3473.9       32   1637.1     29.4     14.7     14.7
 2016 355    82    73      0.2      8.5      1.4     34.9     10.0       10     20.3    255.7     36.6      0.0    275.4      0.0    555.8     5060     1721    254.4     40.7      0.0   3473.9       33   1394.3     19.7      4.1      0.0
 2016 356    83    74      0.2      9.1      1.5     35.8     10.0       10     21.6    288.6     99.0      0.0    313.5      0.0    555.8     5370     1959    690.3    110.5      0.0   3473.9       36   1705.1     24.9     11.5      0.0
 2016 357    84    75      0.2      9.4      1.5     36.6     10.0       11     24.1    332.4    151.4    151.4    363.4    170.1    725.9     5730     2271   1063.1    170.1   1063.1   4537.0       40   1954.7     31.0     18.7     18.7
 2016 358    85    76      0.2      7.1      1.1     37.4     10.0       11     22.2    234.1     43.9      0.0    251.4      0.0    725.9     5980     1571    301.7     48.3      0.0   4537.0       41   1538.7     17.3      4.4      0.0
 2016 359    86    77      0.2      8.3      1.3     38.2     10.0       11     23.4    289.3     75.8      0.0    312.5      0.0    725.9     6290     1953    526.7     84.3      0.0   4537.0       43   1865.5     23.1      8.5      0.0
 2016 360    87    78      0.2      9.6      1.5     39.0     10.0       11     24.9    353.3     96.6      0.0    383.9      0.0    725.9     6670     2399    678.4    108.5      0.0   4537.0       46   1865.5     30.6     12.0      0.0
 2016 361    88    79      0.2     10.8      1.7     39.8     10.0       12     25.9    409.1    140.9    140.9    447.0    159.2    885.2     7120     2794    995.2    159.2    995.2   5532.2       50   2079.8     38.0     18.4     18.4
 2016 362    89    80      0.2      9.2      1.5     40.6     10.0       12     23.7    324.2     47.5      0.0    349.8      0.0    885.2     7470     2186    332.0     53.1      0.0   5532.2       51   1738.3     25.6      5.6      0.0
 2016 363    90    81      0.2     10.1      1.6     41.4     10.0       12     25.4    377.2    117.9      0.0    409.7      0.0    885.2     7880     2560    829.3    132.7      0.0   5532.2       54   2064.7     32.4     14.8      0.0
 2016 364    91    82      0.2     10.5      1.7     42.3     10.0       13     28.0    432.3    175.4    175.4    472.9    199.1   1084.2     8350     2956   1244.1    199.1   1244.1   6776.3       59   2351.4     40.6     23.6     23.6
 2016 365    92    83      0.2      7.5      1.2     42.7     10.0       13     24.3    273.4     48.2      0.0    292.4      0.0   1084.2     8640     1827    333.8     53.4      0.0   6776.3       60   1748.7     18.9      5.2      0.0
 2016 366    93    84      0.2      8.3      1.3     43.1     10.0       13     24.6    303.3     48.2      0.0    325.7      0.0   1084.2     8970     2035    335.8     53.7      0.0   6776.3       61   1748.7     22.3      5.6      0.0
 2017 001    94    85      0.2      9.0      1.4     43.9     10.0       13     26.7    354.7     84.7      0.0    383.1      0.0   1084.2     9350     2394    592.4     94.8      0.0   6776.3       63   1897.8     28.5     10.1      0.0
 2017 002    95    86      0.2      9.7      1.6     44.7     10.0       14     28.6    410.3    131.4    131.4    446.0    148.4   1232.6     9800     2787    927.5    148.4    927.5   7703.8       67   2038.6     35.7     17.0     17.0
 2017 003    96    87      0.2      8.4      1.3     45.5     10.0       14     27.1    338.0     55.9      0.0    362.9      0.0   1232.6    10160     2268    384.9     61.6      0.0   7703.8       68   1706.0     24.9      5.7      0.0
 2017 004    97    88      0.2      8.7      1.4     46.3     10.0       14     30.0    388.4    109.2      0.0    419.2      0.0   1232.6    10580     2620    758.1    121.3      0.0   7703.8       71   1982.9     30.7     12.1      0.0
 2017 005    98    89      0.2      9.2      1.5     47.1     10.0       15     32.8    442.5    187.2    187.2    480.2    209.1   1441.7    11060     3001   1307.0    209.1   1307.0   9010.8       76   2554.1     37.7     22.0     22.0
 2017 006    99    90      0.2      6.5      1.0     47.8     10.0       15     31.5    306.3     67.9      0.0    327.8      0.0   1441.7    11390     2049    468.6     75.0      0.0   9010.8       78   1829.4     21.4      7.1      0.0
 2017 007   100    91      0.2      7.0      1.1     48.3     10.0       15     31.8    330.3    105.8      0.0    355.2      0.0   1441.7    11750     2220    735.5    117.7      0.0   9010.8       81   2136.4     24.9     11.9      0.0
 2017 008   101    92      0.2      7.1      1.1     48.5     10.0       15     32.0    339.7    105.7      0.0    365.8      0.0   1441.7    12120     2286    736.6    117.9      0.0   9010.8       84   2136.4     26.1     12.1      0.0
 2017 009   102    93      0.2      7.7      1.2     48.9     10.0       16     32.5    368.6    105.6    105.6    398.2    118.5   1560.2    12520     2489    740.4    118.5    740.4   9751.2       87   2379.6     29.6     12.9     12.9
 2017 010   103    94      0.2      6.6      1.0     49.5     10.0       16     31.3    306.8     35.3      0.0    328.1      0.0   1560.2    12850     2051    243.6     39.0      0.0   9751.2       88   1926.1     21.3      3.7      0.0
 2017 011   104    95      0.2      7.2      1.2     50.3     10.0       16     34.2    366.1     67.2      0.0    393.7      0.0   1560.2    13240     2460    467.1     74.7      0.0   9751.2       90   2211.0     27.5      7.5      0.0
 2017 012   105    96      0.2      7.8      1.3     51.1     10.0       17     37.7    437.8    112.1    112.1    473.3    125.4   1685.5    13710     2958    783.5    125.4    783.5  10534.7       93   2601.1     35.5     13.3     13.3
 2017 013   106    97      0.2      7.2      1.2     52.0     10.0       17     36.8    394.4     60.5      0.0    425.3      0.0   1685.5    14140     2658    420.0     67.2      0.0  10534.7       95   2542.9     30.9      6.7      0.0
 2017 014   107    98      0.2      8.1      1.3     52.8     10.0       17     39.0    464.0    187.4      0.0    505.0      0.0   1685.5    14650     3157   1307.9    209.3      0.0  10534.7      101   3063.5     41.0     21.8      0.0
 2017 015   108    99      0.2      8.7      1.4     53.7     10.0       17     42.5    541.0    194.9      0.0    594.1      0.0   1685.5    15240     3713   1381.3    221.0      0.0  10534.7      107   3221.4     53.1     26.1      0.0
 2017 016   109   100      0.2      9.4      1.5     54.6     10.0       18     45.1    612.6    265.9    265.9    678.1    303.8   1989.4    15920     4238   1898.8    303.8   1898.8  12433.5      115   3908.6     65.5     37.9     37.9
 2017 017   110   101      0.2      7.5      1.2     55.4     10.0       18     39.3    435.8     58.6      0.0    473.9      0.0   1989.4    16390     2962    410.2     65.6      0.0  12433.5      117   3121.8     38.1      7.1      0.0
 2017 018   111   102      0.2      8.5      1.4     56.2     10.0       18     42.6    531.9    126.3      0.0    581.3      0.0   1989.4    16970     3633    887.2    142.0      0.0  12433.5      121   3486.5     49.4     15.7      0.0
 2017 019   112   103      0.2      9.0      1.4     57.0     10.0       19     47.1    619.4    220.1    220.1    680.9    248.1   2237.4    17650     4256   1550.6    248.1   1550.6  13984.1      127   3486.5     61.5     28.0     28.0
 2017 020   113   104      0.2      7.5      1.2     57.8     10.0       19     44.6    494.1    102.5      0.0    537.4      0.0   2237.4    18190     3359    712.7    114.0      0.0  13984.1      130   3019.1     43.3     11.6      0.0
 2017 021   114   105      0.2      8.4      1.3     58.6     10.0       19     48.2    591.9    223.3      0.0    647.1      0.0   2237.4    18840     4045   1565.2    250.4      0.0  13984.1      136   3476.0     55.2     27.1      0.0
 2017 022   115   106      0.2      8.9      1.4     59.4     10.0       19     49.7    638.3    259.8      0.0    708.0      0.0   2237.4    19550     4425   1844.5    295.1      0.0  13984.1      143   3892.8     69.7     35.3      0.0
 2017 023   116   107      0.2      9.4      1.5     60.4     10.0       20     53.8    723.9    406.5    406.5    809.1    464.5   2701.9    20360     5057   2902.9    464.5   2902.9  16886.9      155   4392.3     85.1     58.0     58.0
 2017 024   117   108      0.2      5.9      0.9     61.1     10.0       20     47.1    406.8     86.0      0.0    441.6      0.0   2701.9    20800     2760    602.8     96.5      0.0  16886.9      158   3164.5     34.8     10.5      0.0
 2017 025   118   109      0.2      6.6      1.1     61.8     10.0       20     51.6    498.6     85.8      0.0    542.8      0.0   2701.9    21340     3392    609.4     97.5      0.0  16886.9      161   3735.2     44.2     11.7      0.0
 2017 026   119   110      0.2      7.3      1.2     62.7     10.0       21     54.6    574.5    170.4    170.4    634.4    194.5   2896.4    21970     3965   1215.9    194.5   1215.9  18102.8      166   4261.8     59.8     24.1     24.1
 2017 027   120   111      0.2      6.3      1.0     63.6     10.0       21     53.6    490.1     85.3      0.0    537.8      0.0   2896.4    22510     3361    605.5     96.9      0.0  18102.8      169   4064.3     47.7     11.5      0.0
 2017 028   121   112      0.2      6.7      1.1     64.1     10.0       21     55.9    542.3    172.3      0.0    596.3      0.0   2896.4    23110     3727   1219.7    195.2      0.0  18102.8      175   4355.9     54.0     22.9      0.0
 2017 029   122   113      0.2      7.0      1.1     64.5     10.0       21     57.4    585.5    172.1      0.0    645.0      0.0   2896.4    23760     4031   1225.5    196.1      0.0  18102.8      181   4355.9     59.6     24.0      0.0
 2017 030   123   114      0.2      7.3      1.2     65.0     10.0       22     60.3    640.1    249.7    249.7    706.9    284.3   3180.8    24470     4418   1777.1    284.3   1777.1  19879.9      190   4923.6     66.7     34.7     34.7
 2017 031   124   115      0.2      5.8      0.9     65.4     10.0       22     53.6    455.3     97.4      0.0    494.2      0.0   3180.8    24960     3089    671.2    107.4      0.0  19879.9      193   4264.1     38.9      9.9      0.0
 2017 032   125   116      0.2      6.4      1.0     66.0     10.0       22     57.8    538.9     97.3      0.0    587.6      0.0   3180.8    25550     3672    677.5    108.4      0.0  19879.9      196   4264.1     48.7     11.1      0.0
 2017 033   126   117      0.2      7.2      1.2     66.7     10.0       23     61.7    649.0    211.2    211.2    711.6    236.7   3417.5    26260     4448   1479.7    236.7   1479.7  21359.5      203   4824.9     62.6     25.6     25.6
 2017 034   127   118      0.2      6.4      1.0     67.5     10.0       23     59.2    555.9    103.2      0.0    606.2      0.0   3417.5    26870     3789    727.1    116.3      0.0  21359.5      207   4153.5     50.3     13.2      0.0
 2017 035   128   119      0.2      7.2      1.2     68.3     10.0       23     62.9    660.1    191.6      0.0    725.5      0.0   3417.5    27600     4535   1366.9    218.7      0.0  21359.5      214   4923.1     65.4     27.1      0.0
 2017 036   129   120      0.2      7.9      1.3     69.2     10.0       23     67.1    760.0    287.6      0.0    843.4      0.0   3417.5    28440     5271   2073.3    331.7      0.0  21359.5      225   5554.9     83.5     44.1      0.0
 2017 037   130   121      0.2      8.5      1.4     69.9     10.0       24     71.5    868.7    343.1    343.1    971.4    400.3   3817.8    29410     6071   2501.6    400.3   2501.6  23861.1      238   6019.6    102.7     57.1     57.1
 2017 038   131   122      0.2      7.1      1.1     70.8     10.0       24     61.1    629.1    115.0      0.0    690.7      0.0   3817.8    30100     4317    810.2    129.6      0.0  23861.1      242   4402.9     61.6     14.6      0.0
 2017 039   132   123      0.2      8.3      1.3     71.6     10.0       24     60.8    727.0    260.4      0.0    805.8      0.0   3817.8    30910     5036   1849.4    295.9      0.0  23861.1      250   4494.7     78.8     35.5      0.0
 2017 040   133   124      0.2      9.1      1.5     72.5     10.0       25     63.6    828.8    383.3    383.3    924.9    438.4   4256.2    31830     5780   2740.0    438.4   2740.0  26601.1      262   4968.6     96.1     55.1     55.1
 2017 041   134   125      0.2      6.6      1.1     73.2     10.0       25     55.1    531.0     92.3      0.0    580.4      0.0   4256.2    32410     3628    640.7    102.5      0.0  26601.1      265   3703.4     49.5     10.2      0.0
 2017 042   135   126      0.2      7.3      1.2     73.8     10.0       25     59.5    632.7    204.5      0.0    693.3      0.0   4256.2    33100     4333   1425.0    228.0      0.0  26601.1      271   4356.1     60.6     23.5      0.0
 2017 043   136   127      0.2      8.0      1.3     74.6     10.0       25     64.5    749.4    309.8      0.0    824.4      0.0   4256.2    33920     5153   2175.9    348.1      0.0  26601.1      280   4985.2     75.0     38.3      0.0
 2017 044   137   128      0.2      8.6      1.4     75.4     10.0       26     68.7    855.6    412.2    412.2    950.0    469.0   4725.1    34870     5937   2930.9    469.0   2930.9  29532.0      292   5532.0     94.4     56.7     56.7
 2017 045   138   129      0.2      6.1      1.0     76.3     10.0       26     60.3    538.7    157.3      0.0    591.4      0.0   4725.1    35460     3696   1114.8    178.4      0.0  29532.0      297   4289.6     52.6     21.0      0.0
 2017 046   139   130      0.2      6.9      1.1     77.1     10.0       26     63.5    628.0    172.5      0.0    698.7      0.0   4725.1    36160     4367   1243.3    198.9      0.0  29532.0      303   4937.9     70.7     26.4      0.0
 2017 047   140   131      0.2      7.4      1.2     77.7     10.0       27     67.4    714.1    268.0    268.0    794.8    307.3   5032.5    36950     4967   1920.9    307.3   1920.9  31453.0      312   5632.9     80.6     39.4     39.4
 2017 048   141   132      0.2      6.1      1.0     78.2     10.0       27     60.6    539.5      0.0      0.0    589.7      0.0   5032.5    37540     3686      0.0      0.0      0.0  31453.0      312   4871.5     50.2      0.0      0.0
 2017 049   142   133      0.2      6.7      1.1     78.9     10.0       27     62.7    610.7    109.9      0.0    675.8      0.0   5032.5    38220     4224    771.7    123.5      0.0  31453.0      316   5540.9     65.1     13.6      0.0
 2017 050   143   134      0.2      7.5      1.2     79.8     10.0       27     66.4    715.7    248.1      0.0    801.1      0.0   5032.5    39020     5007   1758.1    281.3      0.0  31453.0      324   6108.9     85.3     33.2      0.0
 2017 051   144   135      0.2      8.4      1.3     80.6     10.0       28     70.5    837.7    389.0    389.0    941.6    443.5   5476.0    39960     5885   2772.2    443.5   2772.2  34225.1      336   6609.0    103.9     54.6     54.6
 2017 052   145   136      0.2      6.1      1.0     81.4     10.0       28     61.1    525.3    114.7      0.0    592.9      0.0   5476.0    40550     3706    809.8    129.6      0.0  34225.1      340   5278.4     67.6     14.9      0.0
 2017 053   146   137      0.2      6.6      1.1     82.4     10.0       28     61.5    568.3    211.5      0.0    651.8      0.0   5476.0    41200     4073   1517.9    242.9      0.0  34225.1      347   5698.5     83.4     31.4      0.0
 2017 054   147   138      0.2      8.1      1.3     83.2     10.0       29     58.1    654.4    337.7    337.7    749.4    390.3   5866.3    41950     4684   2439.4    390.3   2439.4  36664.5      359   5698.5     95.0     52.6     52.6
 2017 055   148   139      0.2      6.0      1.0     83.9     10.0       29     50.3    430.9    217.9      0.0    485.7      0.0   5866.3    42440     3036   1582.1    253.1      0.0  36664.5      368   3944.3     54.8     35.2      0.0
 2017 056   149   140      0.2      7.1      1.1     84.8     10.0       29     53.5    532.6    283.9      0.0    603.6      0.0   5866.3    43040     3773   2101.1    336.2      0.0  36664.5      381   5184.2     71.1     52.3      0.0
 2017 057   150   141      0.2      7.7      1.2     85.6     10.0       29     59.2    642.3    354.9      0.0    732.2      0.0   5866.3    43770     4576   2656.6    425.0      0.0  36664.5      398   5184.2     89.9     70.2      0.0
 2017 058   151   142      0.2      8.4      1.3     86.4     10.0       30     62.4    734.9    417.0    417.0    841.8    503.0   6369.3    44610     5261   3143.6    503.0   3143.6  39808.1      418   5639.6    106.8     86.0     86.0
 2017 059   152   143      0.2      6.2      1.0     87.2     10.0       30     44.4    408.6     63.9      0.0    439.1      0.0   6369.3    45050     2744    450.1     72.0      0.0  39808.1      421   2891.3     30.5      8.2      0.0
 2017 060   153   144      0.2      7.2      1.1     87.9     10.0       30     47.0    497.7    130.8      0.0    539.0      0.0   6369.3    45590     3369    932.1    149.1      0.0  39808.1      427   3302.8     41.3     18.3      0.0
 2017 061   154   145      0.2      8.2      1.3     88.8     10.0       31     50.6    607.2    130.5    130.5    661.9    152.4   6521.7    46250     4137    952.7    152.4    952.7  40760.8      433   3737.0     54.7     21.9     21.9
 2017 062   155   146      0.2      8.0      1.3     89.6     10.0       31     49.4    591.9      0.0      0.0    635.2      0.0   6521.7    46890     3970      0.0      0.0      0.0  40760.8      433   3380.5     43.3      0.0      0.0
 2017 063   156   147      0.2      8.6      1.4     90.3     10.0       31     53.3    677.9    148.6      0.0    730.8      0.0   6521.7    47620     4568   1024.3    163.9      0.0  40760.8      437   4010.6     53.0     15.3      0.0
 2017 064   157   148      0.2      9.3      1.5     91.2     10.0       31     57.9    795.1    303.8      0.0    863.8      0.0   6521.7    48480     5399   2127.2    340.3      0.0  40760.8      445   4464.6     68.7     36.5      0.0
 2017 065   158   149      0.2      9.9      1.6     92.0     10.0       32     62.2    899.9    410.9    410.9    985.1    463.7   6985.4    49470     6157   2897.8    463.7   2897.8  43658.7      456   4817.8     85.1     52.8     52.8
 2017 066   159   150      0.2      7.4      1.2     92.8     10.0       32     55.0    603.0     64.8      0.0    646.4      0.0   6985.4    50120     4040    452.4     72.4      0.0  43658.7      458   3592.6     43.4      7.6      0.0
 2017 067   160   151      0.2      8.2      1.3     93.6     10.0       32     58.3    708.5    156.6      0.0    765.7      0.0   6985.4    50890     4786   1099.1    175.9      0.0  43658.7      463   4186.0     57.3     19.3      0.0
 2017 068   161   152      0.2      9.1      1.4     94.4     10.0       33     60.9    809.9    256.1    256.1    882.8    289.0   7274.4    51770     5517   1806.5    289.0   1806.5  45465.1      471   4919.1     72.9     32.9     32.9
 2017 069   162   153      0.2      8.0      1.3     95.3     10.0       33     57.4    678.4    127.0      0.0    733.7      0.0   7274.4    52500     4586    881.0    141.0      0.0  45465.1      475   4443.0     55.3     13.9      0.0
 2017 070   163   154      0.2      9.0      1.4     96.1     10.0       33     60.6    800.7    275.8      0.0    872.9      0.0   7274.4    53370     5455   1928.6    308.6      0.0  45465.1      483   5093.2     72.1     32.7      0.0
 2017 071   164   155      0.2      9.6      1.5     96.9     10.0       33     62.7    871.0    385.2      0.0    964.5      0.0   7274.4    54330     6028   2719.1    435.1      0.0  45465.1      494   5659.7     93.5     49.8      0.0
 2017 072   165   156      0.2     11.4      1.8     97.8     10.0       34     56.2    908.8    470.5    470.5   1024.9    536.7   7811.1    55350     6405   3354.5    536.7   3354.5  48819.6      507   5659.7    116.1     66.2     66.2
 2017 073   166   157      0.2      7.9      1.3     98.8     10.0       34     47.5    541.3    246.9      0.0    601.0      0.0   7811.1    55950     3756   1711.4    273.8      0.0  48819.6      514   4051.1     59.7     27.0      0.0
 2017 074   167   158      0.2      8.1      1.3     99.2     10.0       34     50.0    581.2    246.7      0.0    646.4      0.0   7811.1    56600     4040   1719.4    275.1      0.0  48819.6      521   4051.1     65.2     28.4      0.0
 2017 075   168   159      0.2      8.5      1.4     99.6     10.0       35     51.7    631.9    246.3    246.3    703.6    276.5   8087.6    57300     4398   1728.0    276.5   1728.0  50547.6      528   4606.1     71.7     30.1     30.1
 2017 076   169   160      0.2      6.7      1.1    100.1     10.0       35     46.6    446.7    147.0      0.0    496.1      0.0   8087.6    57800     3100   1033.9    165.4      0.0  50547.6      533   3542.6     49.4     18.4      0.0
 2017 077   170   161      0.2      7.1      1.1    100.8     10.0       35     50.8    515.8    246.9      0.0    575.1      0.0   8087.6    58380     3594   1770.4    283.3      0.0  50547.6      542   4009.0     59.3     36.3      0.0

*DSSAT Cropping System Model Ver. 4.8.5.017 pre-release  JUN 28, 2025 01:30:15

*RUN   4        : Radiance                  CRGRO048 UFBA1701    1
 MODEL          : CRGRO048 - Strawberry
 EXPERIMENT     : UFBA1701 SR 2017 BALM STRAWBERRY VARIETY TRIAL
 DATA PATH      : /data/Strawberry/
 TREATMENT  1   : Radiance                  CRGRO048
  
[...]
 2015 004    96    87      0.2     15.7      2.5     40.6     10.0       11     17.7    396.2     90.5      0.0    444.3      0.0    563.8     7840     2777    653.0    104.5      0.0   3524.0       33   2551.8     48.1     14.0      0.0
 2015 005    97    88      0.2     15.6      2.5     41.5     10.0       12     19.8    437.9    136.0    136.0    494.4    158.3    722.1     8330     3090    989.1    158.3    989.1   4513.1       36   2831.7     56.5     22.3     22.3
 2015 006    98    89      0.2     12.9      2.1     42.3     10.0       12     18.9    350.1     55.6      0.0    391.4      0.0    722.1     8720     2446    405.2     64.8      0.0   4513.1       37   2529.6     41.3      9.3      0.0
 2015 007    99    90      0.2     12.8      2.1     42.9     10.0       12     20.5    375.1    104.3      0.0    421.1      0.0    722.1     9140     2632    766.3    122.6      0.0   4513.1       40   2529.6     46.0     18.3      0.0
 2015 008   100    91      0.2     13.5      2.2     43.3     10.0       13     20.2    390.0    104.2    104.2    438.6    123.0    845.1     9580     2741    768.5    123.0    768.5   5281.6       43   2825.8     48.6     18.8     18.8
 2015 009   101    92      0.2     12.0      1.9     43.8     10.0       13     17.7    306.4     44.7      0.0    339.3      0.0    845.1     9920     2120    333.4     53.3      0.0   5281.6       45   2302.2     32.9      8.6      0.0
 2015 010   102    93      0.2     13.5      2.2     44.3     10.0       13     17.1    331.4     44.6      0.0    367.7      0.0    845.1    10290     2298    335.5     53.7      0.0   5281.6       47   2588.0     36.3      9.1      0.0
 2015 011   103    94      0.2     15.4      2.5     45.0     10.0       13     17.4    383.7    107.8      0.0    427.7      0.0    845.1    10720     2673    794.4    127.1      0.0   5281.6       50   2830.4     44.0     19.3      0.0
 2015 012   104    95      0.2     15.8      2.5     45.9     10.0       14     18.8    421.3    107.4    107.4    475.7    129.0    974.1    11200     2973    806.4    129.0    806.4   6088.1       53   2939.5     54.3     21.6     21.6
 2015 013   105    96      0.2     14.5      2.3     46.9     10.0       14     17.8    372.6     34.7      0.0    413.2      0.0    974.1    11610     2582    250.2     40.0      0.0   6088.1       54   2477.8     40.6      5.3      0.0
 2015 014   106    97      0.2     14.8      2.4     47.8     10.0       14     19.6    415.2     71.7      0.0    463.7      0.0    974.1    12070     2898    518.4     82.9      0.0   6088.1       56   2743.5     48.5     11.2      0.0
 2015 015   107    98      0.2     17.0      2.7     48.5     10.0       15     18.2    442.9    130.7    130.7    497.2    150.7   1124.8    12570     3107    941.8    150.7    941.8   7029.8       59   2743.5     54.3     19.9     19.9
 2015 016   108    99      0.2     13.2      2.1     49.2     10.0       15     17.9    339.0     54.5      0.0    378.0      0.0   1124.8    12950     2362    384.8     61.6      0.0   7029.8       60   2163.5     38.9      7.1      0.0
 2015 017   109   100      0.2     12.4      2.0     49.8     10.0       15     20.5    364.6    117.5      0.0    408.0      0.0   1124.8    13360     2550    831.3    133.0      0.0   7029.8       63   2441.0     43.3     15.5      0.0
 2015 018   110   101      0.2     11.7      1.9     50.6     10.0       15     24.0    398.0    117.2      0.0    448.0      0.0   1124.8    13810     2800    838.3    134.1      0.0   7029.8       66   2624.7     50.0     17.0      0.0
 2015 019   111   102      0.2     11.4      1.8     51.2     10.0       16     26.4    424.9    178.5    178.5    480.0    205.1   1329.8    14290     3000   1281.7    205.1   1281.7   8311.5       70   3032.3     55.1     26.6     26.6
 2015 020   112   103      0.2      8.4      1.4     51.8     10.0       16     23.5    284.5     52.8      0.0    317.8      0.0   1329.8    14610     1986    384.1     61.5      0.0   8311.5       72   2668.0     33.3      8.7      0.0
 2015 021   113   104      0.2      9.1      1.5     52.6     10.0       16     26.4    344.9     97.8      0.0    385.9      0.0   1329.8    15000     2412    723.3    115.7      0.0   8311.5       75   3200.6     41.0     17.9      0.0
 2015 022   114   105      0.2     10.7      1.7     53.4     10.0       17     28.0    429.5    139.0    139.0    480.8    166.0   1495.9    15480     3005   1037.6    166.0   1037.6   9349.2       80   4003.0     51.4     27.0     27.0
 2015 023   115   106      0.2      9.8      1.6     54.3     10.0       17     26.0    373.7     19.3      0.0    409.7      0.0   1495.9    15890     2560    139.8     22.4      0.0   9349.2       81   3742.8     36.0      3.0      0.0
 2015 024   116   107      0.2     10.7      1.7     55.0     10.0       17     28.5    445.6     19.3      0.0    489.5      0.0   1495.9    16380     3059    141.1     22.6      0.0   9349.2       82   4102.7     44.0      3.3      0.0
 2015 025   117   108      0.2     11.4      1.8     55.5     10.0       17     29.7    490.2     47.8      0.0    539.8      0.0   1495.9    16920     3374    350.3     56.0      0.0   9349.2       83   4102.7     49.6      8.2      0.0
 2015 026   118   109      0.2     12.4      2.0     56.2     10.0       18     31.5    564.6     90.4     90.4    623.5    106.6   1602.5    17540     3897    666.4    106.6    666.4  10015.5       86   4534.2     58.8     16.2     16.2
 2015 027   119   110      0.2     11.7      1.9     56.6     10.0       18     30.5    524.2      0.0      0.0    572.5      0.0   1602.5    18110     3578      0.0      0.0      0.0  10015.5       86   4338.5     48.3      0.0      0.0
 2015 028   120   111      0.2     11.9      1.9     57.1     10.0       18     32.8    572.9      0.0      0.0    627.1      0.0   1602.5    18740     3920      0.0      0.0      0.0  10015.5       86   4478.0     54.2      0.0      0.0
 2015 029   121   112      0.2     12.7      2.0     57.6     10.0       19     34.1    630.2      0.0      0.0    692.1      0.0   1602.5    19430     4326      0.0      0.0      0.0  10015.5       86   4478.0     61.9      0.0      0.0
 2015 030   122   113      0.2     13.0      2.1     58.1     10.0       19     36.2    684.2     54.1      0.0    754.0      0.0   1602.5    20180     4712    387.7     62.0      0.0  10015.5       88   4741.9     69.8      8.0      0.0
 2015 031   123   114      0.2     13.7      2.2     58.7     10.0       19     37.8    751.5     93.0      0.0    830.4      0.0   1602.5    21010     5190    666.4    106.6      0.0  10015.5       91   5365.0     78.9     13.6      0.0
 2015 032   124   115      0.2     14.1      2.3     59.4     10.0       19     40.6    824.8    174.9      0.0    917.2      0.0   1602.5    21930     5732   1258.0    201.3      0.0  10015.5       96   5530.4     92.4     26.4      0.0
 2015 033   125   116      0.2     14.6      2.3     60.1     10.0       20     43.3    904.2    262.0    262.0   1011.1    303.4   1905.9    22940     6319   1896.4    303.4   1896.4  11911.9      103   5984.8    106.9     41.4     41.4
 2015 034   126   117      0.2     12.6      2.0     60.6     10.0       20     37.8    692.1      0.0      0.0    764.6      0.0   1905.9    23700     4778      0.0      0.0      0.0  11911.9      103   5183.9     72.4      0.0      0.0
 2015 035   127   118      0.2     13.3      2.1     61.4     10.0       20     41.1    789.5    201.1      0.0    876.9      0.0   1905.9    24580     5481   1438.9    230.2      0.0  11911.9      109   5632.2     87.4     29.1      0.0
 2015 036   128   119      0.2     13.8      2.2     62.1     10.0       21     42.6    836.8    268.5    268.5    939.4    310.2   2216.1    25520     5871   1938.5    310.2   1938.5  13850.5      116   6571.1    102.6     41.7     41.7
 2015 037   129   120      0.2     11.2      1.8     62.8     10.0       21     39.4    635.0    103.4      0.0    705.6      0.0   2216.1    26230     4410    742.6    118.8      0.0  13850.5      119   5236.1     70.6     15.4      0.0
 2015 038   130   121      0.2     11.5      1.8     63.4     10.0       21     43.3    714.1    103.2      0.0    795.8      0.0   2216.1    27030     4974    748.7    119.8      0.0  13850.5      122   5836.4     81.6     16.6      0.0
 2015 039   131   122      0.2     11.9      1.9     64.1     10.0       21     47.3    807.8    175.5      0.0    903.2      0.0   2216.1    27930     5645   1277.8    204.5      0.0  13850.5      127   6154.4     95.4     28.9      0.0
 2015 040   132   123      0.2     12.4      2.0     64.9     10.0       22     48.3    846.3    261.5    261.5    960.0    305.9   2522.0    28890     6000   1912.1    305.9   1912.1  15762.6      135   7523.1    113.7     44.5     44.5
 2015 041   133   124      0.2     10.4      1.7     65.5     10.0       22     44.8    665.1     95.4      0.0    745.1      0.0   2522.0    29640     4657    685.3    109.6      0.0  15762.6      138   6167.6     80.0     14.2      0.0
 2015 042   134   125      0.2     10.9      1.8     66.1     10.0       22     48.2    752.8     95.2      0.0    844.1      0.0   2522.0    30480     5276    689.7    110.4      0.0  15762.6      141   6830.6     91.4     15.1      0.0
 2015 043   135   126      0.2     11.4      1.8     66.6     10.0       23     50.8    823.4    147.6    147.6    925.3    171.0   2693.0    31410     5783   1068.9    171.0   1068.9  16831.4      145   7083.4    101.9     23.4     23.4
 2015 044   136   127      0.2     10.4      1.7     66.9     10.0       23     48.3    716.4     58.5      0.0    800.9      0.0   2693.0    32210     5005    420.4     67.3      0.0  16831.4      147   6340.8     84.5      8.8      0.0
 2015 045   137   128      0.2     11.0      1.8     67.3     10.0       23     48.6    767.2    121.9      0.0    859.1      0.0   2693.0    33070     5369    874.5    139.9      0.0  16831.4      150   6749.5     91.9     18.0      0.0
 2015 046   138   129      0.2     11.9      1.9     67.8     10.0       23     50.2    852.4    156.0      0.0    957.4      0.0   2693.0    34030     5984   1124.1    179.9      0.0  16831.4      154   7154.9    105.0     23.9      0.0
 2015 047   139   130      0.2     12.8      2.1     68.5     10.0       24     52.7    960.3    241.2    241.2   1082.9    279.8   2972.8    35110     6768   1748.8    279.8   1748.8  18580.3      161   7697.6    122.6     38.6     38.6
 2015 048   140   131      0.2     11.8      1.9     69.4     10.0       24     49.0    822.5    158.8      0.0    927.2      0.0   2972.8    36040     5795   1163.2    186.1      0.0  18580.3      166   7339.2    104.6     27.3      0.0
 2015 049   141   132      0.2     11.8      1.9     69.9     10.0       24     53.0    882.5    158.6      0.0    997.0      0.0   2972.8    37040     6231   1169.6    187.1      0.0  18580.3      171   7339.2    114.5     28.6      0.0
 2015 050   142   133      0.2     11.7      1.9     70.0     10.0       25     54.2    895.7    158.4    158.4   1012.4    187.2   3160.1    38050     6327   1170.3    187.2   1170.3  19750.6      176   7339.2    116.7     28.9     28.9
 2015 051   143   134      0.2     11.5      1.8     70.3     10.0       25     47.0    770.1     70.4      0.0    862.8      0.0   3160.1    38910     5392    523.0     83.7      0.0  19750.6      179   6809.0     92.6     13.2      0.0
 2015 052   144   135      0.2     11.9      1.9     70.8     10.0       25     50.3    851.5    141.5      0.0    956.3      0.0   3160.1    39870     5977   1050.0    168.0      0.0  19750.6      184   6809.0    104.8     26.5      0.0
 2015 053   145   136      0.2     13.5      2.2     71.6     10.0       25     50.5    960.7    243.4      0.0   1087.7      0.0   3160.1    40960     6798   1809.6    289.5      0.0  19750.6      193   7714.2    127.0     46.2      0.0
 2015 054   146   137      0.2     14.2      2.3     72.5     10.0       26     54.7   1086.8    296.6    296.6   1240.1    357.4   3517.5    42200     7751   2233.5    357.4   2233.5  21984.1      203   8231.3    153.3     60.7     60.7
 2015 055   147   138      0.2     14.4      2.3     73.4     10.0       26     44.2    903.0    233.0      0.0   1018.8      0.0   3517.5    43220     6367   1705.4    272.9      0.0  21984.1      211   6374.0    115.8     39.9      0.0
 2015 056   148   139      0.2     16.4      2.6     74.3     10.0       26     42.6    980.3    351.6      0.0   1118.6      0.0   3517.5    44340     6991   2598.9    415.8      0.0  21984.1      222   6374.0    138.3     64.3      0.0
 2015 057   149   140      0.2     18.3      2.9     75.2     10.0       27     41.2   1049.0    400.3    400.3   1206.1    478.9   3996.4    45550     7538   2993.3    478.9   2993.3  24977.4      235   6374.0    157.1     78.6     78.6
 2015 058   150   141      0.2     16.0      2.6     76.0     10.0       27     30.7    698.7     85.0      0.0    787.0      0.0   3996.4    46340     4919    611.7     97.9      0.0  24977.4      237   4610.9     88.3     12.8      0.0
 2015 059   151   142      0.2     16.0      2.6     76.9     10.0       27     31.8    714.1    224.8      0.0    816.1      0.0   3996.4    47160     5101   1642.0    262.7      0.0  24977.4      244   5117.7    102.0     37.9      0.0
 2015 060   152   143      0.2     16.6      2.6     77.7     10.0       27     34.3    790.9    320.2      0.0    909.6      0.0   3996.4    48070     5685   2365.2    378.4      0.0  24977.4      253   5476.0    118.7     58.2      0.0
 2015 061   153   144      0.2     16.6      2.7     78.5     10.0       28     37.5    858.1    425.0    425.0    996.9    508.4   4504.8    49070     6231   3177.4    508.4   3177.4  28154.8      265   5620.8    138.8     83.4     83.4
 2015 062   154   145      0.2     12.5      2.0     79.4     10.0       28     28.1    495.0     82.2      0.0    562.5      0.0   4504.8    49630     3516    607.5     97.2      0.0  28154.8      267   3779.6     67.5     15.0      0.0
 2015 063   155   146      0.2     13.1      2.1     80.2     10.0       28     31.1    570.5    254.0      0.0    651.1      0.0   4504.8    50280     4069   1877.7    300.4      0.0  28154.8      274   4254.7     80.6     46.4      0.0
 2015 064   156   147      0.2     14.1      2.3     81.0     10.0       29     33.7    665.8    319.7    319.7    761.9    386.5   4891.3    51040     4762   2415.7    386.5   2415.7  30570.5      284   4767.8     96.1     66.8     66.8
 2015 065   157   148      0.2     11.6      1.9     81.8     10.0       29     26.3    448.9      0.0      0.0    488.0      0.0   4891.3    51530     3050      0.0      0.0      0.0  30570.5      284   3457.1     39.1      0.0      0.0
 2015 066   158   149      0.2     12.3      2.0     82.7     10.0       29     30.0    539.7      0.0      0.0    588.8      0.0   4891.3    52120     3680      0.0      0.0      0.0  30570.5      284   4026.4     49.0      0.0      0.0
 2015 067   159   150      0.2     13.0      2.1     83.5     10.0       29     34.2    649.8      0.0      0.0    712.6      0.0   4891.3    52830     4453      0.0      0.0      0.0  30570.5      284   4623.6     62.8      0.0      0.0
 2015 068   160   151      0.2     14.8      2.4     84.4     10.0       30     35.9    769.0    106.9    106.9    847.7    124.0   5015.3    53680     5298    774.9    124.0    774.9  31345.4      287   5246.1     78.7     17.1     17.1
 2015 069   161   152      0.2     15.4      2.5     85.2     10.0       30     35.3    792.8      0.0      0.0    871.2      0.0   5015.3    54550     5445      0.0      0.0      0.0  31345.4      287   5335.8     78.4      0.0      0.0
 2015 070   162   153      0.2     17.5      2.8     85.9     10.0       30     35.6    900.8    107.6      0.0    997.9      0.0   5015.3    55550     6237    785.2    125.6      0.0  31345.4      290   5335.8     97.1     18.0      0.0
 2015 071   163   154      0.2     18.6      3.0     86.7     10.0       31     38.5   1028.0    192.2    192.2   1144.2    225.6   5240.9    56690     7151   1410.3    225.6   1410.3  32755.7      295   5335.8    116.2     33.5     33.5
 2015 072   164   155      0.2     18.8      3.0     87.4     10.0       31     35.2    956.9     34.9      0.0   1055.9      0.0   5240.9    57750     6600    252.9     40.5      0.0  32755.7      296   5192.1     99.0      5.5      0.0
 2015 073   165   156      0.2     20.0      3.2     88.2     10.0       31     37.5   1083.6    130.8      0.0   1201.1      0.0   5240.9    58950     7507    950.5    152.1      0.0  32755.7      299   5563.0    117.5     21.2      0.0
 2015 074   166   157      0.2     20.9      3.3     89.1     10.0       31     40.3   1207.4    244.0      0.0   1345.1      0.0   5240.9    60300     8407   1783.2    285.3      0.0  32755.7      305   6008.9    137.7     41.4      0.0
 2015 075   167   158      0.2     21.5      3.4     89.9     10.0       32     43.1   1322.2    382.2    382.2   1480.8    446.6   5687.5    61780     9255   2791.4    446.6   2791.4  35547.1      314   6435.7    158.7     64.4     64.4
 2015 076   168   159      0.2     19.3      3.1     90.7     10.0       32     37.8   1056.3    145.4      0.0   1168.2      0.0   5687.5    62950     7302   1037.7    166.0      0.0  35547.1      317   5417.4    111.9     20.6      0.0
 2015 077   169   160      0.2     20.2      3.2     91.5     10.0       32     40.2   1167.6    300.0      0.0   1298.7      0.0   5687.5    64250     8117   2154.5    344.7      0.0  35547.1      323   5902.7    131.1     44.7      0.0
 2015 078   170   161      0.2     21.1      3.4     92.3     10.0       33     42.3   1277.1    464.3    464.3   1429.6    536.3   6223.9    65680     8935   3352.1    536.3   3352.1  38899.1      332   6442.2    152.5     72.1     72.1
 2015 079   171   162      0.2     18.0      2.9     93.2     10.0       33     35.9    936.3    173.7      0.0   1033.7      0.0   6223.9    66710     6461   1238.4    198.1      0.0  38899.1      335   5186.1     97.4     24.5      0.0
 2015 080   172   163      0.2     18.9      3.0     94.0     10.0       33     38.8   1059.2    334.6      0.0   1174.6      0.0   6223.9    67880     7341   2407.4    385.2      0.0  38899.1      342   5646.7    115.4     50.6      0.0
 2015 081   173   164      0.2     21.4      3.4     94.8     10.0       33     38.4   1178.5    333.6      0.0   1313.9      0.0   6223.9    69190     8212   2428.4    388.5      0.0  38899.1      349   6183.0    135.4     55.0      0.0
 2015 082   174   165      0.2     23.4      3.7     95.7     10.0       34     37.8   1256.1    444.6    444.6   1414.5    518.7   6742.5    70600     8840   3241.7    518.7   3241.7  42140.9      358   6714.2    158.4     74.1     74.1
 2015 083   175   166      0.2     22.4      3.6     96.6     10.0       34     28.6    923.4     87.0      0.0   1025.2      0.0   6742.5    71630     6408    621.2     99.4      0.0  42140.9      360   5143.4    101.8     12.4      0.0
 2015 084   176   167      0.2     24.9      4.0     97.4     10.0       34     28.6   1017.9    177.1      0.0   1138.2      0.0   6742.5    72770     7114   1283.0    205.3      0.0  42140.9      364   5143.4    120.3     28.2      0.0
 2015 085   177   168      0.2     27.0      4.3     98.2     10.0       35     28.6   1094.9    287.8    287.8   1233.3    336.0   7078.5    74000     7708   2099.8    336.0   2099.8  44240.7      370   5143.4    138.4     48.2     48.2
 2015 086   178   169      0.2     27.3      4.4     99.1     10.0       35     22.3    868.6    237.0      0.0    973.2      0.0   7078.5    74970     6083   1701.9    272.3      0.0  44240.7      375   4011.6    104.6     35.3      0.0
 2015 087   179   170      0.2     28.4      4.5     99.8     10.0       35     22.3    899.7    236.6      0.0   1013.8      0.0   7078.5    75980     6336   1713.0    274.1      0.0  44240.7      380   4011.6    114.0     37.5      0.0
