*INFO DETAIL FILE

******************************************************************************

*DSSAT Cropping System Model Ver. 4.8.5.017 pre-release  JUN 28, 2025 01:29:38

*RUN   1        : Radiance                           UFBA1401    1

 EXPERIMENT     : UFBA1401 SR 2014 BALM STRAWBERRY VARIETY TRIAL
 DATA PATH      : /data/Strawberry/
 TREATMENT  1   : Radiance
  

 MAKEFW  YEAR DOY =    0   0
 Y4KDOY - Weather file                                                         
 Not able to find 7-digits first weather date                                  
 Set simulation to 5-digits first weather date                                 

 CSM     YEAR DOY = 2014 274
 RNMODE = B                                                                    
 PATHEX = /data/Strawberry/                                                    
 FILEX  = UFBA1401.SRX                                                         
 FILEB  = StrawberryDockerCreate1.v48                                          
 FILEIO = DSSAT48.INP                                                          
 MODEL  = CRGRO048                                                             
 TRTNUM =     1                                                                

 SOILDYN  YEAR DOY = 2014 274
 The soil file has missing or invalid data.                                    
 Default values have been used for these variables:                            
   CEC, STONES, ADCOEF, SAEA                                                   
 These defaults may or may not be important to your results.                   

 RETC  YEAR DOY = 2014 274
 Soil RETC parameters:                                                         
  LYR DS  SWCN   WCR    Hb Lambd  Alpha     m     n Texture                    
   1   5 21.00 0.027   0.0 0.255  0.037 0.472 1.893 Sand                       
   2  15 21.00 0.027   0.0 0.255  0.037 0.472 1.893 Sand                       
   3  30 21.00 0.022   0.0 0.260  0.033 0.519 2.079 Sand                       
   4  45 21.00 0.021   0.0 0.264  0.031 0.544 2.191 Sand                       
   5  60 21.00 0.021   0.0 0.264  0.031 0.544 2.191 Sand                       
   6  90 21.00 0.026   0.0 0.235  0.034 0.507 2.028 Sand                       
   7 120 21.00 0.025   0.0 0.231  0.033 0.518 2.076 Sand                       
   8 150 21.00 0.028   0.0 0.219  0.035 0.499 1.998 Sand                       
   9 180 21.00 0.028   0.0 0.219  0.035 0.499 1.998 Sand                       

 SETPM     YEAR DOY = 2014 274
 Simulating flat surface with no plastic mulch.                                                                               

 IPWTH   YEAR DOY = 2014 274
 /data/Strawberry/UFBA1401.WTH                                                 
 Found daily weather data headers for:                                         
   SRAD           Col   7 -  11                                                
   TMAX           Col  13 -  17                                                
   TMIN           Col  19 -  23                                                
   RAIN           Col  25 -  29                                                
   DEWP           Col  31 -  35                                                
   WIND           Col  37 -  41                                                
   PAR            Col  43 -  47                                                
   RHUM           Col  55 -  59                                                

 CO2VAL  YEAR DOY = 2014 274
  800 CO2 data points read from file.                                          
 ///app/dssat/StandardData/CO2048.WDA                                          

 READA   YEAR DOY = 2015   1
  Error in FILEA-Measured data not used                                        

 ENDRUN  YEAR DOY = 2015   1
 Normal end of run        1                                                    

******************************************************************************

*DSSAT Cropping System Model Ver. 4.8.5.017 pre-release  JUN 28, 2025 01:29:44

*RUN   2        : Radiance                           UFBA1601    1

 EXPERIMENT     : UFBA1601 SR 2016 BALM STRAWBERRY VARIETY TRIAL
 DATA PATH      : /data/Strawberry/
 TREATMENT  1   : Radiance
  

 MAKEFW  YEAR DOY =    0   0
 Y4KDOY - Weather file                                                         
 Not able to find 7-digits first weather date                                  
 Set simulation to 5-digits first weather date                                 

 CSM     YEAR DOY = 2016 274
 RNMODE = B                                                                    
 PATHEX = /data/Strawberry/                                                    
 FILEX  = UFBA1601.SRX                                                         
 FILEB  = StrawberryDockerCreate1.v48                                          
 FILEIO = DSSAT48.INP                                                          
 MODEL  = CRGRO048                                                             
 TRTNUM =     1                                                                

 SOILDYN  YEAR DOY = 2016 274
 The soil file has missing or invalid data.                                    
 Default values have been used for these variables:                            
   CEC, STONES, ADCOEF, SAEA                                                   
 These defaults may or may not be important to your results.                   

 RETC  YEAR DOY = 2016 274
 Soil RETC parameters:                                                         
  LYR DS  SWCN   WCR    Hb Lambd  Alpha     m     n Texture                    
   1   5 21.00 0.027   0.0 0.255  0.037 0.472 1.893 Sand                       
   2  15 21.00 0.027   0.0 0.255  0.037 0.472 1.893 Sand                       
   3  30 21.00 0.022   0.0 0.260  0.033 0.519 2.079 Sand                       
   4  45 21.00 0.021   0.0 0.264  0.031 0.544 2.191 Sand                       
   5  60 21.00 0.021   0.0 0.264  0.031 0.544 2.191 Sand                       
   6  90 21.00 0.026   0.0 0.235  0.034 0.507 2.028 Sand                       
   7 120 21.00 0.025   0.0 0.231  0.033 0.518 2.076 Sand                       
   8 150 21.00 0.028   0.0 0.219  0.035 0.499 1.998 Sand                       
   9 180 21.00 0.028   0.0 0.219  0.035 0.499 1.998 Sand                       

 SETPM     YEAR DOY = 2016 274
 Simulating flat surface with no plastic mulch.                                                                               

 IPWTH   YEAR DOY = 2016 274
 /data/Strawberry/UFBA1601.WTH                                                 
 Found daily weather data headers for:                                         
   SRAD           Col   7 -  11                                                
   TMAX           Col  13 -  17                                                
   TMIN           Col  19 -  23                                                
   RAIN           Col  25 -  29                                                
   DEWP           Col  31 -  35                                                
   WIND           Col  37 -  41                                                
   PAR            Col  43 -  47                                                
   RHUM           Col  55 -  59                                                

 READA   YEAR DOY = 2017  77
  Error in FILEA-Measured data not used                                        

 ENDRUN  YEAR DOY = 2017  77
 Normal end of run        2                                                    

******************************************************************************

*DSSAT Cropping System Model Ver. 4.8.5.017 pre-release  JUN 28, 2025 01:29:54

*RUN   3        : Brilliance                CRGRO048 UFBA1601    2
 MODEL          : CRGRO048 - Strawberry
 EXPERIMENT     : UFBA1601 SR 2016 BALM STRAWBERRY VARIETY TRIAL
 DATA PATH      : /data/Strawberry/
 TREATMENT  2   : Brilliance                CRGRO048
  

 CSM     YEAR DOY = 2016 274
 RNMODE = B                                                                    
 PATHEX = /data/Strawberry/                                                    
 FILEX  = UFBA1601.SRX                                                         
 FILEB  = StrawberryDockerCreate1.v48                                          
 FILEIO = DSSAT48.INP                                                          
 MODEL  = CRGRO048                                                             
 TRTNUM =     2                                                                

 SOILDYN  YEAR DOY = 2016 274
 The soil file has missing or invalid data.                                    
 Default values have been used for these variables:                            
   CEC, STONES, ADCOEF, SAEA                                                   
 These defaults may or may not be important to your results.                   

 RETC  YEAR DOY = 2016 274
 Soil RETC parameters:                                                         
  LYR DS  SWCN   WCR    Hb Lambd  Alpha     m     n Texture                    
   1   5 21.00 0.027   0.0 0.255  0.037 0.472 1.893 Sand                       
   2  15 21.00 0.027   0.0 0.255  0.037 0.472 1.893 Sand                       
   3  30 21.00 0.022   0.0 0.260  0.033 0.519 2.079 Sand                       
   4  45 21.00 0.021   0.0 0.264  0.031 0.544 2.191 Sand                       
   5  60 21.00 0.021   0.0 0.264  0.031 0.544 2.191 Sand                       
   6  90 21.00 0.026   0.0 0.235  0.034 0.507 2.028 Sand                       
   7 120 21.00 0.025   0.0 0.231  0.033 0.518 2.076 Sand                       
   8 150 21.00 0.028   0.0 0.219  0.035 0.499 1.998 Sand                       
   9 180 21.00 0.028   0.0 0.219  0.035 0.499 1.998 Sand                       

 SETPM     YEAR DOY = 2016 274
 Simulating flat surface with no plastic mulch.                                                                               

 IPWTH   YEAR DOY = 2016 274
 /data/Strawberry/UFBA1601.WTH                                                 
 Found daily weather data headers for:                                         
   SRAD           Col   7 -  11                                                
   TMAX           Col  13 -  17                                                
   TMIN           Col  19 -  23                                                
   RAIN           Col  25 -  29                                                
   DEWP           Col  31 -  35                                                
   WIND           Col  37 -  41                                                
   PAR            Col  43 -  47                                                
   RHUM           Col  55 -  59                                                

 READA   YEAR DOY = 2017  77
  Error in FILEA-Measured data not used                                        

 ENDRUN  YEAR DOY = 2017  77
 Normal end of run        3                                                    

******************************************************************************

*DSSAT Cropping System Model Ver. 4.8.5.017 pre-release  JUN 28, 2025 01:30:15

*RUN   4        : Radiance                           UFBA1701    1

 EXPERIMENT     : UFBA1701 SR 2017 BALM STRAWBERRY VARIETY TRIAL
 DATA PATH      : /data/Strawberry/
 TREATMENT  1   : Radiance
  

 MAKEFW  YEAR DOY =    0   0
 Y4KDOY - Weather file                                                         
 Not able to find 7-digits first weather date                                  
 Set simulation to 5-digits first weather date                                 

 CSM     YEAR DOY = 2017 274
 RNMODE = B                                                                    
 PATHEX = /data/Strawberry/                                                    
 FILEX  = UFBA1701.SRX                                                         
 FILEB  = StrawberryDockerCreate1.v48                                          
 FILEIO = DSSAT48.INP                                                          
 MODEL  = CRGRO048                                                             
 TRTNUM =     1                                                                

 SOILDYN  YEAR DOY = 2017 274
 The soil file has missing or invalid data.                                    
 Default values have been used for these variables:                            
   CEC, STONES, ADCOEF, SAEA                                                   
 These defaults may or may not be important to your results.                   

 RETC  YEAR DOY = 2017 274
 Soil RETC parameters:                                                         
  LYR DS  SWCN   WCR    Hb Lambd  Alpha     m     n Texture                    
   1   5 21.00 0.027   0.0 0.255  0.037 0.472 1.893 Sand                       
   2  15 21.00 0.027   0.0 0.255  0.037 0.472 1.893 Sand                       
   3  30 21.00 0.022   0.0 0.260  0.033 0.519 2.079 Sand                       
   4  45 21.00 0.021   0.0 0.264  0.031 0.544 2.191 Sand                       
   5  60 21.00 0.021   0.0 0.264  0.031 0.544 2.191 Sand                       
   6  90 21.00 0.026   0.0 0.235  0.034 0.507 2.028 Sand                       
   7 120 21.00 0.025   0.0 0.231  0.033 0.518 2.076 Sand                       
   8 150 21.00 0.028   0.0 0.219  0.035 0.499 1.998 Sand                       
   9 180 21.00 0.028   0.0 0.219  0.035 0.499 1.998 Sand                       

 SETPM     YEAR DOY = 2017 274
 Simulating flat surface with no plastic mulch.                                                                               

 READA   YEAR DOY = 2018   1
  Error in FILEA-Measured data not used                                        

 ENDRUN  YEAR DOY = 2018   1
 Normal end of run        4                                                    

******************************************************************************

*DSSAT Cropping System Model Ver. 4.8.5.017 pre-release  JUN 28, 2025 01:30:23

*RUN   5        : Brilliance                CRGRO048 UFBA1701    2
 MODEL          : CRGRO048 - Strawberry
 EXPERIMENT     : UFBA1701 SR 2017 BALM STRAWBERRY VARIETY TRIAL
 DATA PATH      : /data/Strawberry/
 TREATMENT  2   : Brilliance                CRGRO048
  

 CSM     YEAR DOY = 2017 274
 RNMODE = B                                                                    
 PATHEX = /data/Strawberry/                                                    
 FILEX  = UFBA1701.SRX                                                         
 FILEB  = StrawberryDockerCreate1.v48                                          
 FILEIO = DSSAT48.INP                                                          
 MODEL  = CRGRO048                                                             
 TRTNUM =     2                                                                

 SOILDYN  YEAR DOY = 2017 274
 The soil file has missing or invalid data.                                    
 Default values have been used for these variables:                            
   CEC, STONES, ADCOEF, SAEA                                                   
 These defaults may or may not be important to your results.                   

 RETC  YEAR DOY = 2017 274
 Soil RETC parameters:                                                         
  LYR DS  SWCN   WCR    Hb Lambd  Alpha     m     n Texture                    
   1   5 21.00 0.027   0.0 0.255  0.037 0.472 1.893 Sand                       
   2  15 21.00 0.027   0.0 0.255  0.037 0.472 1.893 Sand                       
   3  30 21.00 0.022   0.0 0.260  0.033 0.519 2.079 Sand                       
   4  45 21.00 0.021   0.0 0.264  0.031 0.544 2.191 Sand                       
   5  60 21.00 0.021   0.0 0.264  0.031 0.544 2.191 Sand                       
   6  90 21.00 0.026   0.0 0.235  0.034 0.507 2.028 Sand                       
   7 120 21.00 0.025   0.0 0.231  0.033 0.518 2.076 Sand                       
   8 150 21.00 0.028   0.0 0.219  0.035 0.499 1.998 Sand                       
   9 180 21.00 0.028   0.0 0.219  0.035 0.499 1.998 Sand                       

 SETPM     YEAR DOY = 2017 274
 Simulating flat surface with no plastic mulch.                                                                               

 READA   YEAR DOY = 2018   1
  Error in FILEA-Measured data not used                                        

 ENDRUN  YEAR DOY = 2018   1
 Normal end of run        5                                                    

******************************************************************************

*DSSAT Cropping System Model Ver. 4.8.5.017 pre-release  JUN 28, 2025 01:30:35

*RUN   6        : Radiance                           UFWM1401    1

 EXPERIMENT     : UFWM1401 SR 2014 WIMAUMA STRAWBERRY GROWTH AND YIELD ANALYSIS
 DATA PATH      : /data/Strawberry/
 TREATMENT  1   : Radiance
  

 MAKEFW  YEAR DOY =    0   0
 Y4KDOY - Weather file                                                         
 Not able to find 7-digits first weather date                                  
 Set simulation to 5-digits first weather date                                 

 CSM     YEAR DOY = 2014 274
 RNMODE = B                                                                    
 PATHEX = /data/Strawberry/                                                    
 FILEX  = UFWM1401.SRX                                                         
 FILEB  = StrawberryDockerCreate1.v48                                          
 FILEIO = DSSAT48.INP                                                          
 MODEL  = CRGRO048                                                             
 TRTNUM =     1                                                                

 SOILDYN  YEAR DOY = 2014 274
 The soil file has missing or invalid data.                                    
 Default values have been used for these variables:                            
   CEC, STONES, ADCOEF, SAEA                                                   
 These defaults may or may not be important to your results.                   

 RETC  YEAR DOY = 2014 274
 Soil RETC parameters:                                                         
  LYR DS  SWCN   WCR    Hb Lambd  Alpha     m     n Texture                    
   1   5 21.00 0.027   0.0 0.255  0.037 0.472 1.893 Sand                       
   2  15 21.00 0.027   0.0 0.255  0.037 0.472 1.893 Sand                       
   3  30 21.00 0.022   0.0 0.260  0.033 0.519 2.079 Sand                       
   4  45 21.00 0.021   0.0 0.264  0.031 0.544 2.191 Sand                       
   5  60 21.00 0.021   0.0 0.264  0.031 0.544 2.191 Sand                       
   6  90 21.00 0.026   0.0 0.235  0.034 0.507 2.028 Sand                       
   7 120 21.00 0.025   0.0 0.231  0.033 0.518 2.076 Sand                       
   8 150 21.00 0.028   0.0 0.219  0.035 0.499 1.998 Sand                       
   9 180 21.00 0.028   0.0 0.219  0.035 0.499 1.998 Sand                       

 SETPM     YEAR DOY = 2014 274
 Simulating flat surface with no plastic mulch.                                                                               

 IPWTH   YEAR DOY = 2014 274
 /data/Strawberry/UFWM1401.WTH                                                 
 Found daily weather data headers for:                                         
   SRAD           Col   7 -  11                                                
   TMAX           Col  13 -  17                                                
   TMIN           Col  19 -  23                                                
   RAIN           Col  25 -  29                                                
   DEWP           Col  31 -  35                                                
   WIND           Col  37 -  41                                                
   PAR            Col  43 -  47                                                
   RHUM           Col  55 -  59                                                

 READA   YEAR DOY = 2015  87
  Error in FILEA-Measured data not used                                        

 ENDRUN  YEAR DOY = 2015  87
 Normal end of run        6                                                    

******************************************************************************

*DSSAT Cropping System Model Ver. 4.8.5.017 pre-release  JUN 28, 2025 01:30:49

*RUN   7        : Sensation                 CRGRO048 UFWM1401    2
 MODEL          : CRGRO048 - Strawberry
 EXPERIMENT     : UFWM1401 SR 2014 WIMAUMA STRAWBERRY GROWTH AND YIELD ANALYSIS
 DATA PATH      : /data/Strawberry/
 TREATMENT  2   : Sensation                 CRGRO048
  

 CSM     YEAR DOY = 2014 274
 RNMODE = B                                                                    
 PATHEX = /data/Strawberry/                                                    
 FILEX  = UFWM1401.SRX                                                         
 FILEB  = StrawberryDockerCreate1.v48                                          
 FILEIO = DSSAT48.INP                                                          
 MODEL  = CRGRO048                                                             
 TRTNUM =     2                                                                

 SOILDYN  YEAR DOY = 2014 274
 The soil file has missing or invalid data.                                    
 Default values have been used for these variables:                            
   CEC, STONES, ADCOEF, SAEA                                                   
 These defaults may or may not be important to your results.                   

 RETC  YEAR DOY = 2014 274
 Soil RETC parameters:                                                         
  LYR DS  SWCN   WCR    Hb Lambd  Alpha     m     n Texture                    
   1   5 21.00 0.027   0.0 0.255  0.037 0.472 1.893 Sand                       
   2  15 21.00 0.027   0.0 0.255  0.037 0.472 1.893 Sand                       
   3  30 21.00 0.022   0.0 0.260  0.033 0.519 2.079 Sand                       
   4  45 21.00 0.021   0.0 0.264  0.031 0.544 2.191 Sand                       
   5  60 21.00 0.021   0.0 0.264  0.031 0.544 2.191 Sand                       
   6  90 21.00 0.026   0.0 0.235  0.034 0.507 2.028 Sand                       
   7 120 21.00 0.025   0.0 0.231  0.033 0.518 2.076 Sand                       
   8 150 21.00 0.028   0.0 0.219  0.035 0.499 1.998 Sand                       
   9 180 21.00 0.028   0.0 0.219  0.035 0.499 1.998 Sand                       

 SETPM     YEAR DOY = 2014 274
 Simulating flat surface with no plastic mulch.                                                                               

 IPWTH   YEAR DOY = 2014 274
 /data/Strawberry/UFWM1401.WTH                                                 
 Found daily weather data headers for:                                         
   SRAD           Col   7 -  11                                                
   TMAX           Col  13 -  17                                                
   TMIN           Col  19 -  23                                                
   RAIN           Col  25 -  29                                                
   DEWP           Col  31 -  35                                                
   WIND           Col  37 -  41                                                
   PAR            Col  43 -  47                                                
   RHUM           Col  55 -  59                                                

 READA   YEAR DOY = 2015  87
  Error in FILEA-Measured data not used                                        

 ENDRUN  YEAR DOY = 2015  87
 Normal end of run        7                                                    
