*SIMULATION OVERVIEW FILE

*DSSAT Cropping System Model Ver. 4.8.5.017 pre-release  JUN 28, 2025 01:29:39

*RUN   1        : Radiance                  CRGRO048 UFBA1401    1
 MODEL          : CRGRO048 - Strawberry
 EXPERIMENT     : UFBA1401 SR 2014 BALM STRAWBERRY VARIETY TRIAL
 DATA PATH      : /data/Strawberry/
 TREATMENT  1   : Radiance                  CRGRO048


 CROP           : Strawberry       CULTIVAR : Radiance         ECOTYPE :SR0001
 STARTING DATE  : OCT  1 2014
 PLANTING DATE  : OCT  9 2014      PLANTS/m2 :     4.3    ROW SPACING : 121.cm
 HARVEST DATE   : NOV 23 2014
 WEATHER        : UFBA   2014
 SOIL           : UFGA010700     TEXTURE : -99   - Candler
 WATER BALANCE  : NOT SIMULATED ; NO H2O-STRESS
 IRRIGATION     :
 NITROGEN BAL.  : NOT SIMULATED ; NO N-STRESS
 N-FERTILIZER   :
 RESIDUE/MANURE :
 ENVIRONM. OPT. : DAYL=    0.00  SRAD=    0.00  TMAX=    0.00  TMIN=    0.00
                  RAIN=    0.00  CO2 =    0.00  DEW =    0.00  WIND=    0.00
 SIMULATION OPT : WATER   :N  NITROGEN:N  N-FIX:N  PHOSPH :N  PESTS  :N
                  PHOTO   :L  ET      :R  INFIL:S  HYDROL :R  SOM    :G
                  CO2 399ppm  NSWIT   :1  EVAP :R  SOIL   :2  STEMP  :D
 MANAGEMENT OPT : PLANTING:R  IRRIG   :R  FERT :R  RESIDUE:R  HARVEST:R
                  WEATHER :M  TILLAGE :N

*SUMMARY OF SOIL AND GENETIC INPUT PARAMETERS

 Strawberry       CULTIVAR: SR0001-Radiance           ECOTYPE: SR0001
 CSDVAR :12.33  PPSEN  : 0.00  EMG-FLW:26.00  FLW-FSD: 8.20  FSD-PHM :110.00
 WTPSD  :0.005  SDPDVR :185.0  SDFDUR :11.70  PODDUR :45.00  XFRUIT  :  0.96
 THRESH : 20.0  SDPRO  :0.300  SDLIP   : 0.050


*SIMULATED CROP AND SOIL STATUS AT MAIN DEVELOPMENT STAGES

 RUN NO.     1     Radiance                

        CROP GROWTH     BIOMASS         LEAF   CROP N     STRESS      STRESS                                           
   DATE  AGE STAGE        kg/ha    LAI   NUM  kg/ha  %   H2O  Nitr Phos1 Phos2  RSTG                                   
 ------  --- ----------   -----  -----  ----  ---  ---  ----  ----  ----  ----  ----                                   
  1 OCT    0 Start Sim        0   0.00   0.0    0  0.0  0.00  0.00  0.00  0.00     0
  9 OCT    0 Transplant     123   0.07   4.6    4  3.6  0.00  0.00  0.00  0.00     0
  1 NOV   23 First Flwr     329   0.19  12.3   11  3.3  0.00  0.00  0.00  0.00     1
  7 NOV   29 First Pod      446   0.29  14.1   15  3.3  0.00  0.00  0.00  0.00     2
 12 NOV   34 First Pod      563   0.38  15.7   19  3.4  0.00  0.00  0.00  0.00     5
 12 NOV   34 First Seed     563   0.38  15.7   19  3.4  0.00  0.00  0.00  0.00     5
  1 JAN   84 Harvest       1804   1.34  28.3   63  3.5  0.00  0.00  0.00  0.00     5


*MAIN GROWTH AND DEVELOPMENT VARIABLES

@     VARIABLE                                         SIMULATED     MEASURED
      --------                                         ---------     --------
      Anthesis day (dap)                                      23          -99
      First pod day (dap)                                     34          -99
      First seed day (dap)                                    34          -99
      Physiological maturity day (dap)                       -99          -99
      Yield at harvest maturity (kg [dm]/ha)                  17          -99
      Pod/Ear/Panicle weight at maturity (kg [dm]/ha)         52          -99
      Tops weight at anthesis (kg [dm]/ha)                   329          -99
      Biomass at maturity (total crop minus roots) (kg[d    1804          -99
      By-product produced (stalk) at maturity (kg[dm]/ha    1790          -99
      Number at maturity (no/m2)                            1409          -99
      Unit wt at maturity (g [dm]/unit)                   0.0012          -99
      Number at maturity (no/unit)                        185.00          -99
      Harvest index at maturity                            0.009          -99
      Threshing % at maturity                              31.89          -99
      Leaf area index, maximum                              1.37          -99
      Leaf number per stem at maturity                     28.31          -99
      Canopy height (m)                                     0.21          -99
      Tops N at anthesis (kg/ha)                              11          -99
      Tops N at maturity (kg/ha)                              63          -99
      Stem N at maturity (kg/ha)                              23          -99
      Grain N at maturity (kg/ha)                              1          -99
      Grain N at maturity (%)                               4.56          -99
      Grain oil at maturity (%)                             3.65          -99


*ENVIRONMENTAL AND STRESS FACTORS

 |-----Development Phase------|--------------------------------------Environment--------------------------------------|-----------------Stress-----------------|
                              |---------------Average--------------|-----Cumulative-----|--------Count of days--------|          (0=Min, 1=Max Stress)         |
                         Time  Temp  Temp  Temp Solar Photop                Evapo    Pot TMIN TMIN TMAX TMAX TMAX RAIN|----Water----|---Nitrogen--|-Phosphorus-|
                         Span   Max   Min  Mean   Rad  [day]    CO2   Rain  Trans     ET   <    <    >    >    >    >   Photo         Photo         Photo
                         days     C     C     C MJ/m2     hr    ppm     mm     mm    mm   0 C  2 C 30 C 32 C 34 C  0mm  synth Growth  synth Growth  synth Growth
----------------------------------------------------------------------------------------------------------------------------------------------------------------
 First Flower-First Seed   11  24.7  11.3  18.0  14.6  10.76  399.3   12.7    0.0    0.0    0    0    0    0    0    3  0.000  0.000  0.000  0.000  0.000  0.000
 First Seed - Phys. Mat.   50  23.1  11.4  17.3  10.4  10.35  399.5  193.9    0.0    0.0    0    0    0    0    0   12  0.000  0.000  0.000  0.000  0.000  0.000
   
 Planting to Harvest       85  24.8  12.5  18.7  12.9  10.64  399.4  249.8    0.0    0.0    0    0    5    1    0   18  0.000  0.000  0.000  0.000  0.000  0.000
----------------------------------------------------------------------------------------------------------------------------------------------------------------

--------------------------------------------------------------------------------------------------------------

                Strawberry YIELD :       52 kg/ha    [Dry weight] 

**************************************************************************************************************

*DSSAT Cropping System Model Ver. 4.8.5.017 pre-release  JUN 28, 2025 01:29:44

*RUN   2        : Radiance                  CRGRO048 UFBA1601    1
 MODEL          : CRGRO048 - Strawberry
 EXPERIMENT     : UFBA1601 SR 2016 BALM STRAWBERRY VARIETY TRIAL
 DATA PATH      : /data/Strawberry/
 TREATMENT  1   : Radiance                  CRGRO048


 CROP           : Strawberry       CULTIVAR : Radiance         ECOTYPE :SR0001
 STARTING DATE  : SEP 30 2016
 PLANTING DATE  : OCT  8 2016      PLANTS/m2 :     4.3    ROW SPACING : 121.cm
 HARVEST DATE   : NOV 16 2016
 WEATHER        : UFBA   2016
 SOIL           : UFGA010700     TEXTURE : -99   - Candler
 WATER BALANCE  : NOT SIMULATED ; NO H2O-STRESS
 IRRIGATION     :
 NITROGEN BAL.  : NOT SIMULATED ; NO N-STRESS
 N-FERTILIZER   :
 RESIDUE/MANURE :
 ENVIRONM. OPT. : DAYL=    0.00  SRAD=    0.00  TMAX=    0.00  TMIN=    0.00
                  RAIN=    0.00  CO2 =    0.00  DEW =    0.00  WIND=    0.00
 SIMULATION OPT : WATER   :N  NITROGEN:N  N-FIX:N  PHOSPH :N  PESTS  :N
                  PHOTO   :L  ET      :R  INFIL:S  HYDROL :R  SOM    :G
                  CO2 405ppm  NSWIT   :1  EVAP :R  SOIL   :2  STEMP  :D
 MANAGEMENT OPT : PLANTING:R  IRRIG   :R  FERT :R  RESIDUE:R  HARVEST:R
                  WEATHER :M  TILLAGE :N

*SUMMARY OF SOIL AND GENETIC INPUT PARAMETERS

 Strawberry       CULTIVAR: SR0001-Radiance           ECOTYPE: SR0001
 CSDVAR :12.33  PPSEN  : 0.00  EMG-FLW:26.00  FLW-FSD: 8.20  FSD-PHM :110.00
 WTPSD  :0.005  SDPDVR :185.0  SDFDUR :11.70  PODDUR :45.00  XFRUIT  :  0.96
 THRESH : 20.0  SDPRO  :0.300  SDLIP   : 0.050


*SIMULATED CROP AND SOIL STATUS AT MAIN DEVELOPMENT STAGES

 RUN NO.     2     Radiance                

        CROP GROWTH     BIOMASS         LEAF   CROP N     STRESS      STRESS                                           
   DATE  AGE STAGE        kg/ha    LAI   NUM  kg/ha  %   H2O  Nitr Phos1 Phos2  RSTG                                   
 ------  --- ----------   -----  -----  ----  ---  ---  ----  ----  ----  ----  ----                                   
 30 SEP    0 Start Sim        0   0.00   0.0    0  0.0  0.00  0.00  0.00  0.00     0
  8 OCT    0 Transplant     123   0.07   4.6    4  3.6  0.00  0.00  0.00  0.00     0
  1 NOV   24 First Flwr     340   0.22  13.0   11  3.3  0.00  0.00  0.00  0.00     1
  6 NOV   29 First Pod      432   0.31  14.8   15  3.4  0.00  0.00  0.00  0.00     2
 11 NOV   34 First Pod      555   0.42  16.5   19  3.4  0.00  0.00  0.00  0.00     5
 11 NOV   34 First Seed     555   0.42  16.5   19  3.4  0.00  0.00  0.00  0.00     5
 10 MAR  153 End Msnode    2508   1.51  37.2   86  3.4  0.00  0.00  0.00  0.00     5
 18 MAR  161 Harvest       2785   1.58  37.2   95  3.4  0.00  0.00  0.00  0.00     5


*MAIN GROWTH AND DEVELOPMENT VARIABLES

@     VARIABLE                                         SIMULATED     MEASURED
      --------                                         ---------     --------
      Anthesis day (dap)                                      24          -99
      First pod day (dap)                                     34          -99
      First seed day (dap)                                    34          -99
      Physiological maturity day (dap)                       -99          -99
      Yield at harvest maturity (kg [dm]/ha)                  61          -99
      Pod/Ear/Panicle weight at maturity (kg [dm]/ha)        154          -99
      Tops weight at anthesis (kg [dm]/ha)                   340          -99
      Biomass at maturity (total crop minus roots) (kg[d    2785          -99
      By-product produced (stalk) at maturity (kg[dm]/ha    2720          -99
      Number at maturity (no/m2)                            4105          -99
      Unit wt at maturity (g [dm]/unit)                   0.0015          -99
      Number at maturity (no/unit)                        185.00          -99
      Harvest index at maturity                            0.022          -99
      Threshing % at maturity                              39.38          -99
      Leaf area index, maximum                              1.66          -99
      Leaf number per stem at maturity                     37.21          -99
      Canopy height (m)                                     0.25          -99
      Tops N at anthesis (kg/ha)                              11          -99
      Tops N at maturity (kg/ha)                              95          -99
      Stem N at maturity (kg/ha)                              31          -99
      Grain N at maturity (kg/ha)                              3          -99
      Grain N at maturity (%)                               4.56          -99
      Grain oil at maturity (%)                             5.32          -99


*ENVIRONMENTAL AND STRESS FACTORS

 |-----Development Phase------|--------------------------------------Environment--------------------------------------|-----------------Stress-----------------|
                              |---------------Average--------------|-----Cumulative-----|--------Count of days--------|          (0=Min, 1=Max Stress)         |
                         Time  Temp  Temp  Temp Solar Photop                Evapo    Pot TMIN TMIN TMAX TMAX TMAX RAIN|----Water----|---Nitrogen--|-Phosphorus-|
                         Span   Max   Min  Mean   Rad  [day]    CO2   Rain  Trans     ET   <    <    >    >    >    >   Photo         Photo         Photo
                         days     C     C     C MJ/m2     hr    ppm     mm     mm    mm   0 C  2 C 30 C 32 C 34 C  0mm  synth Growth  synth Growth  synth Growth
----------------------------------------------------------------------------------------------------------------------------------------------------------------
 First Flower-First Seed   10  27.8  15.6  21.7  13.7  10.75  405.0    0.0    0.0    0.0    0    0    0    0    0    0  0.000  0.000  0.000  0.000  0.000  0.000
 First Seed - Phys. Mat.  127  25.3  12.1  18.7  13.1  10.71  405.5   89.5    0.0    0.0    0    3    3    0    0   20  0.000  0.000  0.000  0.000  0.000  0.000
   
 Planting to Harvest      162  26.0  13.1  19.6  13.5  10.78  405.3   90.0    0.0    0.0    0    3    9    0    0   21  0.000  0.000  0.000  0.000  0.000  0.000
----------------------------------------------------------------------------------------------------------------------------------------------------------------

--------------------------------------------------------------------------------------------------------------

                Strawberry YIELD :      154 kg/ha    [Dry weight] 

**************************************************************************************************************

*DSSAT Cropping System Model Ver. 4.8.5.017 pre-release  JUN 28, 2025 01:29:54

*RUN   3        : Brilliance                CRGRO048 UFBA1601    2
 MODEL          : CRGRO048 - Strawberry
 EXPERIMENT     : UFBA1601 SR 2016 BALM STRAWBERRY VARIETY TRIAL
 DATA PATH      : /data/Strawberry/
 TREATMENT  2   : Brilliance                CRGRO048


 CROP           : Strawberry       CULTIVAR : Brilliance       ECOTYPE :SR0003
 STARTING DATE  : SEP 30 2016
 PLANTING DATE  : OCT  8 2016      PLANTS/m2 :     4.3    ROW SPACING : 121.cm
 HARVEST DATE   : NOV 16 2016
 WEATHER        : UFBA   2016
 SOIL           : UFGA010700     TEXTURE : -99   - Candler
 WATER BALANCE  : NOT SIMULATED ; NO H2O-STRESS
 IRRIGATION     :
 NITROGEN BAL.  : NOT SIMULATED ; NO N-STRESS
 N-FERTILIZER   :
 RESIDUE/MANURE :
 ENVIRONM. OPT. : DAYL=    0.00  SRAD=    0.00  TMAX=    0.00  TMIN=    0.00
                  RAIN=    0.00  CO2 =    0.00  DEW =    0.00  WIND=    0.00
 SIMULATION OPT : WATER   :N  NITROGEN:N  N-FIX:N  PHOSPH :N  PESTS  :N
                  PHOTO   :L  ET      :R  INFIL:S  HYDROL :R  SOM    :G
                  CO2 405ppm  NSWIT   :1  EVAP :R  SOIL   :2  STEMP  :D
 MANAGEMENT OPT : PLANTING:R  IRRIG   :R  FERT :R  RESIDUE:R  HARVEST:R
                  WEATHER :M  TILLAGE :N

*SUMMARY OF SOIL AND GENETIC INPUT PARAMETERS

 Strawberry       CULTIVAR: SR0003-Brilliance         ECOTYPE: SR0003
 CSDVAR :12.33  PPSEN  : 0.00  EMG-FLW:26.00  FLW-FSD: 8.20  FSD-PHM :110.00
 WTPSD  :0.005  SDPDVR :150.0  SDFDUR :11.70  PODDUR :33.00  XFRUIT  :  0.96
 THRESH : 20.0  SDPRO  :0.300  SDLIP   : 0.050


*SIMULATED CROP AND SOIL STATUS AT MAIN DEVELOPMENT STAGES

 RUN NO.     3     Brilliance              

        CROP GROWTH     BIOMASS         LEAF   CROP N     STRESS      STRESS                                           
   DATE  AGE STAGE        kg/ha    LAI   NUM  kg/ha  %   H2O  Nitr Phos1 Phos2  RSTG                                   
 ------  --- ----------   -----  -----  ----  ---  ---  ----  ----  ----  ----  ----                                   
 30 SEP    0 Start Sim        0   0.00   0.0    0  0.0  0.00  0.00  0.00  0.00     0
  8 OCT    0 Transplant     123   0.07   4.6    4  3.6  0.00  0.00  0.00  0.00     0
  1 NOV   24 First Flwr     361   0.24  13.0   12  3.3  0.00  0.00  0.00  0.00     1
  6 NOV   29 First Pod      465   0.34  14.8   16  3.4  0.00  0.00  0.00  0.00     2
 11 NOV   34 First Pod      605   0.46  16.5   20  3.4  0.00  0.00  0.00  0.00     5
 11 NOV   34 First Seed     605   0.46  16.5   20  3.4  0.00  0.00  0.00  0.00     5
 26 FEB  141 End Msnode    2096   1.13  32.1   76  3.6  0.00  0.00  0.00  0.00     5
 18 MAR  161 Harvest       2024   1.11  32.1   72  3.6  0.00  0.00  0.00  0.00     5


*MAIN GROWTH AND DEVELOPMENT VARIABLES

@     VARIABLE                                         SIMULATED     MEASURED
      --------                                         ---------     --------
      Anthesis day (dap)                                      24          -99
      First pod day (dap)                                     34          -99
      First seed day (dap)                                    34          -99
      Physiological maturity day (dap)                       -99          -99
      Yield at harvest maturity (kg [dm]/ha)                  59          -99
      Pod/Ear/Panicle weight at maturity (kg [dm]/ha)        148          -99
      Tops weight at anthesis (kg [dm]/ha)                   361          -99
      Biomass at maturity (total crop minus roots) (kg[d    2024          -99
      By-product produced (stalk) at maturity (kg[dm]/ha    1960          -99
      Number at maturity (no/m2)                            4009          -99
      Unit wt at maturity (g [dm]/unit)                   0.0015          -99
      Number at maturity (no/unit)                        150.00          -99
      Harvest index at maturity                            0.029          -99
      Threshing % at maturity                              40.06          -99
      Leaf area index, maximum                              1.45          -99
      Leaf number per stem at maturity                     32.14          -99
      Canopy height (m)                                     0.25          -99
      Tops N at anthesis (kg/ha)                              12          -99
      Tops N at maturity (kg/ha)                              72          -99
      Stem N at maturity (kg/ha)                              22          -99
      Grain N at maturity (kg/ha)                              3          -99
      Grain N at maturity (%)                               4.56          -99
      Grain oil at maturity (%)                             5.39          -99


*ENVIRONMENTAL AND STRESS FACTORS

 |-----Development Phase------|--------------------------------------Environment--------------------------------------|-----------------Stress-----------------|
                              |---------------Average--------------|-----Cumulative-----|--------Count of days--------|          (0=Min, 1=Max Stress)         |
                         Time  Temp  Temp  Temp Solar Photop                Evapo    Pot TMIN TMIN TMAX TMAX TMAX RAIN|----Water----|---Nitrogen--|-Phosphorus-|
                         Span   Max   Min  Mean   Rad  [day]    CO2   Rain  Trans     ET   <    <    >    >    >    >   Photo         Photo         Photo
                         days     C     C     C MJ/m2     hr    ppm     mm     mm    mm   0 C  2 C 30 C 32 C 34 C  0mm  synth Growth  synth Growth  synth Growth
----------------------------------------------------------------------------------------------------------------------------------------------------------------
 First Flower-First Seed   10  27.8  15.6  21.7  13.7  10.75  405.0    0.0    0.0    0.0    0    0    0    0    0    0  0.000  0.000  0.000  0.000  0.000  0.000
 First Seed - Phys. Mat.  127  25.3  12.1  18.7  13.1  10.71  405.5   89.5    0.0    0.0    0    3    3    0    0   20  0.000  0.000  0.000  0.000  0.000  0.000
   
 Planting to Harvest      162  26.0  13.1  19.6  13.5  10.78  405.3   90.0    0.0    0.0    0    3    9    0    0   21  0.000  0.000  0.000  0.000  0.000  0.000
----------------------------------------------------------------------------------------------------------------------------------------------------------------

--------------------------------------------------------------------------------------------------------------

                Strawberry YIELD :      148 kg/ha    [Dry weight] 

**************************************************************************************************************

*DSSAT Cropping System Model Ver. 4.8.5.017 pre-release  JUN 28, 2025 01:30:15

*RUN   4        : Radiance                  CRGRO048 UFBA1701    1
 MODEL          : CRGRO048 - Strawberry
 EXPERIMENT     : UFBA1701 SR 2017 BALM STRAWBERRY VARIETY TRIAL
 DATA PATH      : /data/Strawberry/
 TREATMENT  1   : Radiance                  CRGRO048


 CROP           : Strawberry       CULTIVAR : Radiance         ECOTYPE :SR0001
 STARTING DATE  : OCT  1 2017
 PLANTING DATE  : OCT  9 2017      PLANTS/m2 :     4.3    ROW SPACING : 121.cm
 HARVEST DATE   : NOV 21 2017
 WEATHER        : UFBA   2017
 SOIL           : UFGA010700     TEXTURE : -99   - Candler
 WATER BALANCE  : NOT SIMULATED ; NO H2O-STRESS
 IRRIGATION     :
 NITROGEN BAL.  : NOT SIMULATED ; NO N-STRESS
 N-FERTILIZER   :
 RESIDUE/MANURE :
 ENVIRONM. OPT. : DAYL=    0.00  SRAD=    0.00  TMAX=    0.00  TMIN=    0.00
                  RAIN=    0.00  CO2 =    0.00  DEW =    0.00  WIND=    0.00
 SIMULATION OPT : WATER   :N  NITROGEN:N  N-FIX:N  PHOSPH :N  PESTS  :N
                  PHOTO   :L  ET      :R  INFIL:S  HYDROL :R  SOM    :G
                  CO2 407ppm  NSWIT   :1  EVAP :R  SOIL   :2  STEMP  :D
 MANAGEMENT OPT : PLANTING:R  IRRIG   :R  FERT :R  RESIDUE:R  HARVEST:R
                  WEATHER :M  TILLAGE :N

*SUMMARY OF SOIL AND GENETIC INPUT PARAMETERS

 Strawberry       CULTIVAR: SR0001-Radiance           ECOTYPE: SR0001
 CSDVAR :12.33  PPSEN  : 0.00  EMG-FLW:26.00  FLW-FSD: 8.20  FSD-PHM :110.00
 WTPSD  :0.005  SDPDVR :185.0  SDFDUR :11.70  PODDUR :45.00  XFRUIT  :  0.96
 THRESH : 20.0  SDPRO  :0.300  SDLIP   : 0.050


*SIMULATED CROP AND SOIL STATUS AT MAIN DEVELOPMENT STAGES

 RUN NO.     4     Radiance                

        CROP GROWTH     BIOMASS         LEAF   CROP N     STRESS      STRESS                                           
   DATE  AGE STAGE        kg/ha    LAI   NUM  kg/ha  %   H2O  Nitr Phos1 Phos2  RSTG                                   
 ------  --- ----------   -----  -----  ----  ---  ---  ----  ----  ----  ----  ----                                   
  1 OCT    0 Start Sim        0   0.00   0.0    0  0.0  0.00  0.00  0.00  0.00     0
  9 OCT    0 Transplant     123   0.07   4.6    4  3.6  0.00  0.00  0.00  0.00     0
  4 NOV   26 First Flwr     352   0.21  13.0   12  3.4  0.00  0.00  0.00  0.00     1
  9 NOV   31 First Pod      445   0.30  14.8   15  3.4  0.00  0.00  0.00  0.00     2
 14 NOV   36 First Pod      531   0.40  16.6   18  3.4  0.00  0.00  0.00  0.00     5
 14 NOV   36 First Seed     531   0.40  16.6   18  3.4  0.00  0.00  0.00  0.00     5
  1 JAN   84 Harvest       1905   1.43  29.5   68  3.6  0.00  0.00  0.00  0.00     5


*MAIN GROWTH AND DEVELOPMENT VARIABLES

@     VARIABLE                                         SIMULATED     MEASURED
      --------                                         ---------     --------
      Anthesis day (dap)                                      26          -99
      First pod day (dap)                                     36          -99
      First seed day (dap)                                    36          -99
      Physiological maturity day (dap)                       -99          -99
      Yield at harvest maturity (kg [dm]/ha)                  19          -99
      Pod/Ear/Panicle weight at maturity (kg [dm]/ha)         83          -99
      Tops weight at anthesis (kg [dm]/ha)                   352          -99
      Biomass at maturity (total crop minus roots) (kg[d    1905          -99
      By-product produced (stalk) at maturity (kg[dm]/ha    1890          -99
      Number at maturity (no/m2)                            1689          -99
      Unit wt at maturity (g [dm]/unit)                   0.0011          -99
      Number at maturity (no/unit)                        185.00          -99
      Harvest index at maturity                            0.010          -99
      Threshing % at maturity                              23.03          -99
      Leaf area index, maximum                              1.43          -99
      Leaf number per stem at maturity                     29.50          -99
      Canopy height (m)                                     0.22          -99
      Tops N at anthesis (kg/ha)                              12          -99
      Tops N at maturity (kg/ha)                              68          -99
      Stem N at maturity (kg/ha)                              25          -99
      Grain N at maturity (kg/ha)                              1          -99
      Grain N at maturity (%)                               4.53          -99
      Grain oil at maturity (%)                             4.08          -99


*ENVIRONMENTAL AND STRESS FACTORS

 |-----Development Phase------|--------------------------------------Environment--------------------------------------|-----------------Stress-----------------|
                              |---------------Average--------------|-----Cumulative-----|--------Count of days--------|          (0=Min, 1=Max Stress)         |
                         Time  Temp  Temp  Temp Solar Photop                Evapo    Pot TMIN TMIN TMAX TMAX TMAX RAIN|----Water----|---Nitrogen--|-Phosphorus-|
                         Span   Max   Min  Mean   Rad  [day]    CO2   Rain  Trans     ET   <    <    >    >    >    >   Photo         Photo         Photo
                         days     C     C     C MJ/m2     hr    ppm     mm     mm    mm   0 C  2 C 30 C 32 C 34 C  0mm  synth Growth  synth Growth  synth Growth
----------------------------------------------------------------------------------------------------------------------------------------------------------------
 First Flower-First Seed   10  27.6  16.8  22.2  12.1  10.71  407.0    1.3    0.0    0.0    0    0    1    0    0    2  0.000  0.000  0.000  0.000  0.000  0.000
 First Seed - Phys. Mat.   48  24.9  11.7  18.3  11.1  10.34  407.2   56.1    0.0    0.0    0    2    0    0    0   10  0.000  0.000  0.000  0.000  0.000  0.000
   
 Planting to Harvest       85  26.4  13.9  20.1  12.2  10.64  407.1   71.4    0.0    0.0    0    2   14    4    0   21  0.000  0.000  0.000  0.000  0.000  0.000
----------------------------------------------------------------------------------------------------------------------------------------------------------------

--------------------------------------------------------------------------------------------------------------

                Strawberry YIELD :       83 kg/ha    [Dry weight] 

**************************************************************************************************************

*DSSAT Cropping System Model Ver. 4.8.5.017 pre-release  JUN 28, 2025 01:30:23

*RUN   5        : Brilliance                CRGRO048 UFBA1701    2
 MODEL          : CRGRO048 - Strawberry
 EXPERIMENT     : UFBA1701 SR 2017 BALM STRAWBERRY VARIETY TRIAL
 DATA PATH      : /data/Strawberry/
 TREATMENT  2   : Brilliance                CRGRO048


 CROP           : Strawberry       CULTIVAR : Brilliance       ECOTYPE :SR0003
 STARTING DATE  : OCT  1 2017
 PLANTING DATE  : OCT  9 2017      PLANTS/m2 :     4.3    ROW SPACING : 121.cm
 HARVEST DATE   : NOV 21 2017
 WEATHER        : UFBA   2017
 SOIL           : UFGA010700     TEXTURE : -99   - Candler
 WATER BALANCE  : NOT SIMULATED ; NO H2O-STRESS
 IRRIGATION     :
 NITROGEN BAL.  : NOT SIMULATED ; NO N-STRESS
 N-FERTILIZER   :
 RESIDUE/MANURE :
 ENVIRONM. OPT. : DAYL=    0.00  SRAD=    0.00  TMAX=    0.00  TMIN=    0.00
                  RAIN=    0.00  CO2 =    0.00  DEW =    0.00  WIND=    0.00
 SIMULATION OPT : WATER   :N  NITROGEN:N  N-FIX:N  PHOSPH :N  PESTS  :N
                  PHOTO   :L  ET      :R  INFIL:S  HYDROL :R  SOM    :G
                  CO2 407ppm  NSWIT   :1  EVAP :R  SOIL   :2  STEMP  :D
 MANAGEMENT OPT : PLANTING:R  IRRIG   :R  FERT :R  RESIDUE:R  HARVEST:R
                  WEATHER :M  TILLAGE :N

*SUMMARY OF SOIL AND GENETIC INPUT PARAMETERS

 Strawberry       CULTIVAR: SR0003-Brilliance         ECOTYPE: SR0003
 CSDVAR :12.33  PPSEN  : 0.00  EMG-FLW:26.00  FLW-FSD: 8.20  FSD-PHM :110.00
 WTPSD  :0.005  SDPDVR :150.0  SDFDUR :11.70  PODDUR :33.00  XFRUIT  :  0.96
 THRESH : 20.0  SDPRO  :0.300  SDLIP   : 0.050


*SIMULATED CROP AND SOIL STATUS AT MAIN DEVELOPMENT STAGES

 RUN NO.     5     Brilliance              

        CROP GROWTH     BIOMASS         LEAF   CROP N     STRESS      STRESS                                           
   DATE  AGE STAGE        kg/ha    LAI   NUM  kg/ha  %   H2O  Nitr Phos1 Phos2  RSTG                                   
 ------  --- ----------   -----  -----  ----  ---  ---  ----  ----  ----  ----  ----                                   
  1 OCT    0 Start Sim        0   0.00   0.0    0  0.0  0.00  0.00  0.00  0.00     0
  9 OCT    0 Transplant     123   0.07   4.6    4  3.6  0.00  0.00  0.00  0.00     0
  4 NOV   26 First Flwr     373   0.23  13.0   13  3.4  0.00  0.00  0.00  0.00     1
  9 NOV   31 First Pod      477   0.33  14.8   16  3.4  0.00  0.00  0.00  0.00     2
 14 NOV   36 First Pod      574   0.43  16.6   19  3.4  0.00  0.00  0.00  0.00     5
 14 NOV   36 First Seed     574   0.43  16.6   19  3.4  0.00  0.00  0.00  0.00     5
  1 JAN   84 Harvest       1913   1.38  28.3   72  3.8  0.00  0.00  0.00  0.00     5


*MAIN GROWTH AND DEVELOPMENT VARIABLES

@     VARIABLE                                         SIMULATED     MEASURED
      --------                                         ---------     --------
      Anthesis day (dap)                                      26          -99
      First pod day (dap)                                     36          -99
      First seed day (dap)                                    36          -99
      Physiological maturity day (dap)                       -99          -99
      Yield at harvest maturity (kg [dm]/ha)                  28          -99
      Pod/Ear/Panicle weight at maturity (kg [dm]/ha)        143          -99
      Tops weight at anthesis (kg [dm]/ha)                   373          -99
      Biomass at maturity (total crop minus roots) (kg[d    1913          -99
      By-product produced (stalk) at maturity (kg[dm]/ha    1880          -99
      Number at maturity (no/m2)                            2495          -99
      Unit wt at maturity (g [dm]/unit)                   0.0011          -99
      Number at maturity (no/unit)                        150.00          -99
      Harvest index at maturity                            0.015          -99
      Threshing % at maturity                              19.75          -99
      Leaf area index, maximum                              1.38          -99
      Leaf number per stem at maturity                     28.32          -99
      Canopy height (m)                                     0.24          -99
      Tops N at anthesis (kg/ha)                              13          -99
      Tops N at maturity (kg/ha)                              72          -99
      Stem N at maturity (kg/ha)                              24          -99
      Grain N at maturity (kg/ha)                              1          -99
      Grain N at maturity (%)                               4.53          -99
      Grain oil at maturity (%)                             4.09          -99


*ENVIRONMENTAL AND STRESS FACTORS

 |-----Development Phase------|--------------------------------------Environment--------------------------------------|-----------------Stress-----------------|
                              |---------------Average--------------|-----Cumulative-----|--------Count of days--------|          (0=Min, 1=Max Stress)         |
                         Time  Temp  Temp  Temp Solar Photop                Evapo    Pot TMIN TMIN TMAX TMAX TMAX RAIN|----Water----|---Nitrogen--|-Phosphorus-|
                         Span   Max   Min  Mean   Rad  [day]    CO2   Rain  Trans     ET   <    <    >    >    >    >   Photo         Photo         Photo
                         days     C     C     C MJ/m2     hr    ppm     mm     mm    mm   0 C  2 C 30 C 32 C 34 C  0mm  synth Growth  synth Growth  synth Growth
----------------------------------------------------------------------------------------------------------------------------------------------------------------
 First Flower-First Seed   10  27.6  16.8  22.2  12.1  10.71  407.0    1.3    0.0    0.0    0    0    1    0    0    2  0.000  0.000  0.000  0.000  0.000  0.000
 First Seed - Phys. Mat.   48  24.9  11.7  18.3  11.1  10.34  407.2   56.1    0.0    0.0    0    2    0    0    0   10  0.000  0.000  0.000  0.000  0.000  0.000
   
 Planting to Harvest       85  26.4  13.9  20.1  12.2  10.64  407.1   71.4    0.0    0.0    0    2   14    4    0   21  0.000  0.000  0.000  0.000  0.000  0.000
----------------------------------------------------------------------------------------------------------------------------------------------------------------

--------------------------------------------------------------------------------------------------------------

                Strawberry YIELD :      143 kg/ha    [Dry weight] 

**************************************************************************************************************

*DSSAT Cropping System Model Ver. 4.8.5.017 pre-release  JUN 28, 2025 01:30:37

*RUN   6        : Radiance                  CRGRO048 UFWM1401    1
 MODEL          : CRGRO048 - Strawberry
 EXPERIMENT     : UFWM1401 SR 2014 WIMAUMA STRAWBERRY GROWTH AND YIELD ANALYSIS
 DATA PATH      : /data/Strawberry/
 TREATMENT  1   : Radiance                  CRGRO048


 CROP           : Strawberry       CULTIVAR : Radiance         ECOTYPE :SR0001
 STARTING DATE  : OCT  1 2014
 PLANTING DATE  : OCT  9 2014      PLANTS/m2 :     4.3    ROW SPACING : 121.cm
 HARVEST DATE   : NOV 23 2014
 WEATHER        : UFWM   2014
 SOIL           : UFGA010700     TEXTURE : -99   - Candler
 WATER BALANCE  : NOT SIMULATED ; NO H2O-STRESS
 IRRIGATION     :
 NITROGEN BAL.  : NOT SIMULATED ; NO N-STRESS
 N-FERTILIZER   :
 RESIDUE/MANURE :
 ENVIRONM. OPT. : DAYL=    0.00  SRAD=    0.00  TMAX=    0.00  TMIN=    0.00
                  RAIN=    0.00  CO2 =    0.00  DEW =    0.00  WIND=    0.00
 SIMULATION OPT : WATER   :N  NITROGEN:N  N-FIX:N  PHOSPH :N  PESTS  :N
                  PHOTO   :L  ET      :R  INFIL:S  HYDROL :R  SOM    :G
                  CO2 399ppm  NSWIT   :1  EVAP :R  SOIL   :2  STEMP  :D
 MANAGEMENT OPT : PLANTING:R  IRRIG   :R  FERT :R  RESIDUE:R  HARVEST:R
                  WEATHER :M  TILLAGE :N

*SUMMARY OF SOIL AND GENETIC INPUT PARAMETERS

 Strawberry       CULTIVAR: SR0001-Radiance           ECOTYPE: SR0001
 CSDVAR :12.33  PPSEN  : 0.00  EMG-FLW:26.00  FLW-FSD: 8.20  FSD-PHM :110.00
 WTPSD  :0.005  SDPDVR :185.0  SDFDUR :11.70  PODDUR :45.00  XFRUIT  :  0.96
 THRESH : 20.0  SDPRO  :0.300  SDLIP   : 0.050


*SIMULATED CROP AND SOIL STATUS AT MAIN DEVELOPMENT STAGES

 RUN NO.     6     Radiance                

        CROP GROWTH     BIOMASS         LEAF   CROP N     STRESS      STRESS                                           
   DATE  AGE STAGE        kg/ha    LAI   NUM  kg/ha  %   H2O  Nitr Phos1 Phos2  RSTG                                   
 ------  --- ----------   -----  -----  ----  ---  ---  ----  ----  ----  ----  ----                                   
  1 OCT    0 Start Sim        0   0.00   0.0    0  0.0  0.00  0.00  0.00  0.00     0
  9 OCT    0 Transplant     123   0.07   4.6    4  3.6  0.00  0.00  0.00  0.00     0
 31 OCT   22 First Flwr     315   0.18  12.2   10  3.3  0.00  0.00  0.00  0.00     1
  5 NOV   27 First Pod      413   0.25  13.6   14  3.3  0.00  0.00  0.00  0.00     2
 10 NOV   32 First Pod      512   0.34  15.2   17  3.3  0.00  0.00  0.00  0.00     5
 10 NOV   32 First Seed     512   0.34  15.2   17  3.3  0.00  0.00  0.00  0.00     5
 19 MAR  161 End Msnode    2906   1.71  37.1  100  3.5  0.00  0.00  0.00  0.00     5
 28 MAR  170 Harvest       3107   1.68  37.1  106  3.4  0.00  0.00  0.00  0.00     5


*MAIN GROWTH AND DEVELOPMENT VARIABLES

@     VARIABLE                                         SIMULATED     MEASURED
      --------                                         ---------     --------
      Anthesis day (dap)                                      22          -99
      First pod day (dap)                                     32          -99
      First seed day (dap)                                    32          -99
      Physiological maturity day (dap)                       -99          -99
      Yield at harvest maturity (kg [dm]/ha)                  68          -99
      Pod/Ear/Panicle weight at maturity (kg [dm]/ha)        185          -99
      Tops weight at anthesis (kg [dm]/ha)                   315          -99
      Biomass at maturity (total crop minus roots) (kg[d    3107          -99
      By-product produced (stalk) at maturity (kg[dm]/ha    3040          -99
      Number at maturity (no/m2)                            4079          -99
      Unit wt at maturity (g [dm]/unit)                   0.0017          -99
      Number at maturity (no/unit)                        185.00          -99
      Harvest index at maturity                            0.022          -99
      Threshing % at maturity                              36.94          -99
      Leaf area index, maximum                              1.84          -99
      Leaf number per stem at maturity                     37.14          -99
      Canopy height (m)                                     0.23          -99
      Tops N at anthesis (kg/ha)                              10          -99
      Tops N at maturity (kg/ha)                             106          -99
      Stem N at maturity (kg/ha)                              34          -99
      Grain N at maturity (kg/ha)                              3          -99
      Grain N at maturity (%)                               4.60          -99
      Grain oil at maturity (%)                             3.72          -99


*ENVIRONMENTAL AND STRESS FACTORS

 |-----Development Phase------|--------------------------------------Environment--------------------------------------|-----------------Stress-----------------|
                              |---------------Average--------------|-----Cumulative-----|--------Count of days--------|          (0=Min, 1=Max Stress)         |
                         Time  Temp  Temp  Temp Solar Photop                Evapo    Pot TMIN TMIN TMAX TMAX TMAX RAIN|----Water----|---Nitrogen--|-Phosphorus-|
                         Span   Max   Min  Mean   Rad  [day]    CO2   Rain  Trans     ET   <    <    >    >    >    >   Photo         Photo         Photo
                         days     C     C     C MJ/m2     hr    ppm     mm     mm    mm   0 C  2 C 30 C 32 C 34 C  0mm  synth Growth  synth Growth  synth Growth
----------------------------------------------------------------------------------------------------------------------------------------------------------------
 First Flower-First Seed   10  22.5  10.9  16.7  14.4  10.80  399.3   12.7    0.0    0.0    0    0    0    0    0    3  0.000  0.000  0.000  0.000  0.000  0.000
 First Seed - Phys. Mat.  138  22.3  11.2  16.8  13.2  10.81  399.7  385.8    0.0    0.0    1    1    0    0    0   32  0.000  0.000  0.000  0.000  0.000  0.000
   
 Planting to Harvest      171  23.0  11.7  17.4  13.8  10.86  399.6  441.7    0.0    0.0    1    1    0    0    0   38  0.000  0.000  0.000  0.000  0.000  0.000
----------------------------------------------------------------------------------------------------------------------------------------------------------------

--------------------------------------------------------------------------------------------------------------

                Strawberry YIELD :      185 kg/ha    [Dry weight] 

**************************************************************************************************************

*DSSAT Cropping System Model Ver. 4.8.5.017 pre-release  JUN 28, 2025 01:30:49

*RUN   7        : Sensation                 CRGRO048 UFWM1401    2
 MODEL          : CRGRO048 - Strawberry
 EXPERIMENT     : UFWM1401 SR 2014 WIMAUMA STRAWBERRY GROWTH AND YIELD ANALYSIS
 DATA PATH      : /data/Strawberry/
 TREATMENT  2   : Sensation                 CRGRO048


 CROP           : Strawberry       CULTIVAR : Sensation        ECOTYPE :SR0002
 STARTING DATE  : OCT  1 2014
 PLANTING DATE  : OCT  9 2014      PLANTS/m2 :     4.3    ROW SPACING : 121.cm
 HARVEST DATE   : NOV 23 2014
 WEATHER        : UFWM   2014
 SOIL           : UFGA010700     TEXTURE : -99   - Candler
 WATER BALANCE  : NOT SIMULATED ; NO H2O-STRESS
 IRRIGATION     :
 NITROGEN BAL.  : NOT SIMULATED ; NO N-STRESS
 N-FERTILIZER   :
 RESIDUE/MANURE :
 ENVIRONM. OPT. : DAYL=    0.00  SRAD=    0.00  TMAX=    0.00  TMIN=    0.00
                  RAIN=    0.00  CO2 =    0.00  DEW =    0.00  WIND=    0.00
 SIMULATION OPT : WATER   :N  NITROGEN:N  N-FIX:N  PHOSPH :N  PESTS  :N
                  PHOTO   :L  ET      :R  INFIL:S  HYDROL :R  SOM    :G
                  CO2 399ppm  NSWIT   :1  EVAP :R  SOIL   :2  STEMP  :D
 MANAGEMENT OPT : PLANTING:R  IRRIG   :R  FERT :R  RESIDUE:R  HARVEST:R
                  WEATHER :M  TILLAGE :N

*SUMMARY OF SOIL AND GENETIC INPUT PARAMETERS

 Strawberry       CULTIVAR: SR0002-Sensation          ECOTYPE: SR0002
 CSDVAR :12.33  PPSEN  : 0.00  EMG-FLW:27.00  FLW-FSD: 8.40  FSD-PHM : 91.50
 WTPSD  :0.005  SDPDVR :180.0  SDFDUR :13.30  PODDUR :42.40  XFRUIT  :  0.95
 THRESH : 20.0  SDPRO  :0.300  SDLIP   : 0.050


*SIMULATED CROP AND SOIL STATUS AT MAIN DEVELOPMENT STAGES

 RUN NO.     7     Sensation               

        CROP GROWTH     BIOMASS         LEAF   CROP N     STRESS      STRESS                                           
   DATE  AGE STAGE        kg/ha    LAI   NUM  kg/ha  %   H2O  Nitr Phos1 Phos2  RSTG                                   
 ------  --- ----------   -----  -----  ----  ---  ---  ----  ----  ----  ----  ----                                   
  1 OCT    0 Start Sim        0   0.00   0.0    0  0.0  0.00  0.00  0.00  0.00     0
  9 OCT    0 Transplant     123   0.07   4.6    4  3.6  0.00  0.00  0.00  0.00     0
  1 NOV   23 First Flwr     352   0.20  12.5   12  3.3  0.00  0.00  0.00  0.00     1
 10 NOV   32 First Pod      546   0.36  15.2   18  3.4  0.00  0.00  0.00  0.00     2
 12 NOV   34 First Pod      613   0.41  15.8   21  3.4  0.00  0.00  0.00  0.00     5
 12 NOV   34 First Seed     613   0.41  15.8   21  3.4  0.00  0.00  0.00  0.00     5
  6 FEB  120 End Msnode    2608   1.68  32.3  106  4.1  0.00  0.00  0.00  0.00     5
 21 MAR  163 End Pod       2960   1.59  32.3  115  3.9  0.00  0.00  0.00  0.00     5
 22 MAR  164 Phys. Mat     3089   1.58  32.3  119  3.8  0.00  0.00  0.00  0.00     8
 22 MAR  164 Harv. Mat     3089   1.58  32.3  119  3.8  0.00  0.00  0.00  0.00     8
 28 MAR  170 Harvest       2717   1.48  32.3  104  3.8  0.00  0.00  0.00  0.00     8


*MAIN GROWTH AND DEVELOPMENT VARIABLES

@     VARIABLE                                         SIMULATED     MEASURED
      --------                                         ---------     --------
      Anthesis day (dap)                                      23          -99
      First pod day (dap)                                     34          -99
      First seed day (dap)                                    34          -99
      Physiological maturity day (dap)                       164          -99
      Harvest maturity day (dap)                             164          -99
      Yield at harvest maturity (kg [dm]/ha)                 114          -99
      Pod/Ear/Panicle weight at maturity (kg [dm]/ha)        116          -99
      Tops weight at anthesis (kg [dm]/ha)                   352          -99
      Biomass at maturity (total crop minus roots) (kg[d    2717          -99
      By-product produced (stalk) at maturity (kg[dm]/ha    2600          -99
      Number at maturity (no/m2)                            4012          -99
      Unit wt at maturity (g [dm]/unit)                   0.0028          -99
      Number at maturity (no/unit)                        180.00          -99
      Harvest index at maturity                            0.042          -99
      Threshing % at maturity                              97.97          -99
      Leaf area index, maximum                              1.82          -99
      Leaf number per stem at maturity                     32.35          -99
      Canopy height (m)                                     0.24          -99
      Tops N at anthesis (kg/ha)                              12          -99
      Tops N at maturity (kg/ha)                             104          -99
      Stem N at maturity (kg/ha)                              30          -99
      Grain N at maturity (kg/ha)                              5          -99
      Grain N at maturity (%)                               4.61          -99
      Grain oil at maturity (%)                             3.55          -99


*ENVIRONMENTAL AND STRESS FACTORS

 |-----Development Phase------|--------------------------------------Environment--------------------------------------|-----------------Stress-----------------|
                              |---------------Average--------------|-----Cumulative-----|--------Count of days--------|          (0=Min, 1=Max Stress)         |
                         Time  Temp  Temp  Temp Solar Photop                Evapo    Pot TMIN TMIN TMAX TMAX TMAX RAIN|----Water----|---Nitrogen--|-Phosphorus-|
                         Span   Max   Min  Mean   Rad  [day]    CO2   Rain  Trans     ET   <    <    >    >    >    >   Photo         Photo         Photo
                         days     C     C     C MJ/m2     hr    ppm     mm     mm    mm   0 C  2 C 30 C 32 C 34 C  0mm  synth Growth  synth Growth  synth Growth
----------------------------------------------------------------------------------------------------------------------------------------------------------------
 First Flower-First Seed   11  23.3  11.2  17.2  14.6  10.76  399.3   12.7    0.0    0.0    0    0    0    0    0    3  0.000  0.000  0.000  0.000  0.000  0.000
 First Seed - Phys. Mat.  130  22.2  11.1  16.6  13.0  10.75  399.7  368.6    0.0    0.0    1    1    0    0    0   29  0.000  0.000  0.000  0.000  0.000  0.000
   
 Planting to Harvest      171  23.0  11.7  17.4  13.8  10.86  399.6  441.7    0.0    0.0    1    1    0    0    0   38  0.000  0.000  0.000  0.000  0.000  0.000
----------------------------------------------------------------------------------------------------------------------------------------------------------------

--------------------------------------------------------------------------------------------------------------

                Strawberry YIELD :      116 kg/ha    [Dry weight] 

**************************************************************************************************************
