*GROWTH ASPECTS OUTPUT FILE

*DSSAT Cropping System Model Ver. 4.8.5.017 pre-release  JUN 28, 2025 01:29:39

*RUN   1        : Radiance                  CRGRO048 UFBA1401    1
 MODEL          : CRGRO048 - Strawberry
 EXPERIMENT     : UFBA1401 SR 2014 BALM STRAWBERRY VARIETY TRIAL
 DATA PATH      : /data/Strawberry/
 TREATMENT  1   : Radiance                  CRGRO048
  
!                                                                                                                                                                                                                                                           Root Dens. (cm/cm3) by soil depth (cm):
!                                                                                                                                                                                                                                                           0-5    5-15   15-30   30-45   45-60   60-90  90-120 120-150 150-180
@YEAR DOY   DAS   DAP   L#SD   GSTD   LAID   LWAD   SWAD   GWAD   RWAD   VWAD   CWAD   G#AD    GWGD   HIAD   PWAD   P#AD   WSPD   WSGD   NSTD  PST1A  PST2A   KSTD   EWSD    LN%D   SH%D   HIPD   PWDD   PWTD   SLAD   CHTD   CWID   NWAD   RDPD   RLAD    RL1D    RL2D    RL3D    RL4D    RL5D    RL6D    RL7D    RL8D    RL9D    SNW0C   SNW1C
 2014 282     9     0    4.6      0  0.065     49     74      0     52    123    123      0     0.0  0.000      0      0  0.000  0.000  0.000  0.000  0.000  0.000  0.000    4.40   0.00   0.00      0      0  132.2   0.01   0.02    0.0   0.13      5    0.52    0.26    0.00    0.00    0.00    0.00    0.00    0.00    0.00        0       1
 2014 283    10     1    4.9      0  0.065     49     74      0     52    123    123      0     0.0  0.000      0      0  0.000  0.000  0.000  0.000  0.000  0.000  0.000    4.40   0.00   0.00      0      0  132.4   0.06   0.09    0.0   0.15      5    0.52    0.26    0.00    0.00    0.00    0.00    0.00    0.00    0.00        0       1
 2014 284    11     2    5.3      0  0.065     49     79      0     55    128    128      0     0.0  0.000      0      0  0.000  0.000  0.000  0.000  0.000  0.000  0.000    4.39   0.00   0.00      0      0  132.7   0.06   0.10    0.0   0.18      6    0.54    0.28    0.00    0.00    0.00    0.00    0.00    0.00    0.00        1       2
 2014 285    12     3    5.6      0  0.065     49     84      0     60    133    133      0     0.0  0.000      0      0  0.000  0.000  0.000  0.000  0.000  0.000  0.000    4.38   0.00   0.00      0      0  133.0   0.07   0.11    0.0   0.20      6    0.56    0.31    0.01    0.00    0.00    0.00    0.00    0.00    0.00        1       3
 2014 286    13     4    5.9      0  0.065     48     90      0     64    139    139      0     0.0  0.000      0      0  0.000  0.000  0.000  0.000  0.000  0.000  0.000    4.37   0.00   0.00      0      0  133.3   0.07   0.11    0.0   0.22      6    0.58    0.33    0.02    0.00    0.00    0.00    0.00    0.00    0.00        2       4
 2014 287    14     5    6.3      0  0.064     48     93      0     66    141    141      0     0.0  0.000      0      0  0.000  0.000  0.000  0.000  0.000  0.000  0.000    4.36   0.00   0.00      0      0  133.8   0.08   0.12    0.0   0.25      7    0.58    0.34    0.02    0.00    0.00    0.00    0.00    0.00    0.00        3       4
 2014 288    15     6    6.7      0  0.064     48     98      0     71    146    146      0     0.0  0.000      0      0  0.000  0.000  0.000  0.000  0.000  0.000  0.000    4.35   0.00   0.00      0      0  134.2   0.08   0.12    0.0   0.27      7    0.60    0.36    0.04    0.00    0.00    0.00    0.00    0.00    0.00        3       5
 2014 289    16     7    7.0      0  0.064     47    105      0     76    152    152      0     0.0  0.000      0      0  0.000  0.000  0.000  0.000  0.000  0.000  0.000    4.34   0.00   0.00      0      0  134.4   0.08   0.13    0.0   0.30      8    0.62    0.38    0.05    0.00    0.00    0.00    0.00    0.00    0.00        4       6
 2014 290    17     8    7.3      0  0.063     47    112      0     82    159    159      0     0.0  0.000      0      0  0.000  0.000  0.000  0.000  0.000  0.000  0.000    4.33   0.00   0.00      0      0  134.6   0.09   0.13    0.0   0.32      8    0.64    0.40    0.07    0.00    0.00    0.00    0.00    0.00    0.00        5       7
 2014 291    18     9    7.6      0  0.064     48    119      0     88    166    166      0     0.0  0.000      0      0  0.000  0.000  0.000  0.000  0.000  0.000  0.000    4.32   0.00   0.00      0      0  134.9   0.09   0.14    0.0   0.35      9    0.66    0.42    0.09    0.00    0.00    0.00    0.00    0.00    0.00        5       8
 2014 292    19    10    8.0      0  0.065     48    125      0     93    173    173      0     0.0  0.000      0      0  0.000  0.000  0.000  0.000  0.000  0.000  0.000    4.30   0.00   0.00      0      0  135.5   0.09   0.14    0.0   0.37      9    0.67    0.44    0.10    0.01    0.00    0.00    0.00    0.00    0.00        6       9
 2014 293    20    11    8.3      0  0.071     51    129      0     96    180    180      0     0.0  0.000      0      0  0.000  0.000  0.000  0.000  0.000  0.000  0.000    4.30   0.00   0.00      0      0  138.0   0.09   0.15    0.0   0.39     10    0.68    0.45    0.11    0.01    0.00    0.00    0.00    0.00    0.00        7      10
 2014 294    21    12    8.7      0  0.076     54    132      0     98    186    186      0     0.0  0.000      0      0  0.000  0.000  0.000  0.000  0.000  0.000  0.000    4.29   0.00   0.00      0      0  141.9   0.10   0.15    0.0   0.42     10    0.68    0.46    0.11    0.02    0.00    0.00    0.00    0.00    0.00        8      12
 2014 295    22    13    9.0      0  0.084     58    136      0    101    194    194      0     0.0  0.000      0      0  0.000  0.000  0.000  0.000  0.000  0.000  0.000    4.30   0.00   0.00      0      0  144.9   0.10   0.16    0.0   0.44     10    0.69    0.47    0.12    0.02    0.00    0.00    0.00    0.00    0.00        8      13
 2014 296    23    14    9.4      0  0.092     62    142      0    106    204    204      0     0.0  0.000      0      0  0.000  0.000  0.000  0.000  0.000  0.000  0.000    4.30   0.00   0.00      0      0  146.8   0.10   0.16    0.0   0.47     11    0.70    0.48    0.13    0.03    0.00    0.00    0.00    0.00    0.00        9      14
 2014 297    24    15    9.7      0  0.100     67    148      0    112    216    216      0     0.0  0.000      0      0  0.000  0.000  0.000  0.000  0.000  0.000  0.000    4.29   0.00   0.00      0      0  148.2   0.11   0.17    0.0   0.49     11    0.71    0.50    0.15    0.04    0.00    0.00    0.00    0.00    0.00       10      16
 2014 298    25    16   10.1      0  0.109     73    155      0    118    228    228      0     0.0  0.000      0      0  0.000  0.000  0.000  0.000  0.000  0.000  0.000    4.29   0.00   0.00      0      0  148.7   0.11   0.17    0.0   0.52     12    0.72    0.51    0.16    0.05    0.01    0.00    0.00    0.00    0.00       11      17
 2014 299    26    17   10.4      0  0.118     80    162      0    125    242    242      0     0.0  0.000      0      0  0.000  0.000  0.000  0.000  0.000  0.000  0.000    4.30   0.00   0.00      0      0  147.9   0.11   0.18    0.0   0.54     13    0.74    0.53    0.17    0.06    0.01    0.00    0.00    0.00    0.00       12      18
 2014 300    27    18   10.7      0  0.127     86    170      0    132    256    256      0     0.0  0.000      0      0  0.000  0.000  0.000  0.000  0.000  0.000  0.000    4.29   0.00   0.00      0      0  147.7   0.12   0.18    0.0   0.56     13    0.76    0.55    0.19    0.08    0.02    0.00    0.00    0.00    0.00       13      20
 2014 301    28    19   11.0      0  0.138     93    177      0    139    269    269      0     0.0  0.000      0      0  0.000  0.000  0.000  0.000  0.000  0.000  0.000    4.29   0.00   0.00      0      0  148.6   0.12   0.19    0.0   0.58     14    0.77    0.57    0.20    0.09    0.02    0.00    0.00    0.00    0.00       14      21
 2014 302    29    20   11.3      0  0.149     99    183      0    146    282    282      0     0.0  0.000      0      0  0.000  0.000  0.000  0.000  0.000  0.000  0.000    4.28   0.00   0.00      0      0  150.5   0.12   0.19    0.0   0.61     15    0.79    0.58    0.21    0.10    0.03    0.00    0.00    0.00    0.00       16      23
 2014 303    30    21   11.7      0  0.160    105    188      0    153    293    293      0     0.0  0.000      0      0  0.000  0.000  0.000  0.000  0.000  0.000  0.000    4.27   0.00   0.00      0      0  153.1   0.12   0.20    0.0   0.63     16    0.80    0.60    0.22    0.11    0.04    0.00    0.00    0.00    0.00       17      25
 2014 304    31    22   12.1      0  0.177    113    196      0    163    310    310      0     0.0  0.000      0      0  0.000  0.000  0.000  0.000  0.000  0.000  0.000    4.28   0.00   0.00      0      0  155.8   0.13   0.20    0.0   0.66     17    0.82    0.63    0.24    0.12    0.05    0.00    0.00    0.00    0.00       19      27
 2014 305    32    23   12.3      1  0.188    124    205      0    175    329    329      0     0.0  0.000      0      0  0.000  0.000  0.000  0.000  0.000  0.000  0.000    4.29   0.00   0.00      0      0  152.4   0.13   0.20    0.0   0.68     18    0.85    0.66    0.26    0.14    0.06    0.00    0.00    0.00    0.00       20      29
 2014 306    33    24   12.5      1  0.201    134    215      0    188    349    349      0     0.0  0.000      0      0  0.000  0.000  0.000  0.000  0.000  0.000  0.000    4.29   0.00   0.00      0      0  150.0   0.13   0.21    0.0   0.69     19    0.88    0.69    0.29    0.15    0.08    0.01    0.00    0.00    0.00       21      30
 2014 307    34    25   12.8      1  0.216    145    224      0    201    369    369      0     0.0  0.000      0      0  0.000  0.000  0.000  0.000  0.000  0.000  0.000    4.29   0.00   0.00      0      0  148.8   0.13   0.21    0.0   0.71     21    0.91    0.72    0.31    0.17    0.09    0.01    0.00    0.00    0.00       22      32
 2014 308    35    26   13.1      1  0.231    155    233      0    213    388    388      0     0.0  0.000      0      0  0.000  0.000  0.000  0.000  0.000  0.000  0.000    4.28   0.00   0.00      0      0  149.2   0.13   0.21    0.0   0.73     22    0.94    0.75    0.33    0.19    0.10    0.01    0.00    0.00    0.00       24      34
 2014 309    36    27   13.4      1  0.249    165    242      0    224    406    406      0     0.0  0.000      0      0  0.000  0.000  0.000  0.000  0.000  0.000  0.000    4.27   0.00   0.00      0      0  151.5   0.13   0.22    0.0   0.76     23    0.96    0.77    0.34    0.20    0.11    0.02    0.00    0.00    0.00       27      37
 2014 310    37    28   13.8      1  0.267    173    250      0    234    423    423      0     0.0  0.000      0      0  0.000  0.000  0.000  0.000  0.000  0.000  0.000    4.27   0.00   0.00      0      0  153.9   0.14   0.22    0.0   0.78     24    0.98    0.80    0.36    0.21    0.12    0.02    0.00    0.00    0.00       29      40
 2014 311    38    29   14.1      2  0.285    185    260      0    248    446    446      0     0.0  0.000      0      0  0.000  0.000  0.000  0.000  0.000  0.000  0.000    4.27   0.00   0.00      0      0  153.9   0.14   0.23    0.0   0.81     25    1.01    0.83    0.38    0.23    0.14    0.03    0.00    0.00    0.00       32      43
 2014 312    39    30   14.4      2  0.301    195    269      0    260    464    464      0     0.0  0.000      0      0  0.000  0.000  0.000  0.000  0.000  0.000  0.000    4.26   0.00   0.00      0      0  154.4   0.14   0.23    0.0   0.83     27    1.03    0.85    0.40    0.24    0.15    0.03    0.00    0.00    0.00       34      46
 2014 313    40    31   14.7      2  0.313    201    274      0    266    475    476      0     0.0  0.000      1      0  0.000  0.000  0.000  0.000  0.000  0.000  0.000    4.24   0.00   0.00      0      1  155.8   0.14   0.23    0.0   0.85     27    1.04    0.87    0.41    0.25    0.15    0.04    0.00    0.00    0.00       37      49
 2014 314    41    32   15.1      2  0.334    214    287      0    282    501    503      0     0.0  0.000      2      0  0.000  0.000  0.000  0.000  0.000  0.000  0.000    4.26   0.00   0.00      0      2  155.8   0.14   0.24    0.0   0.87     29    1.08    0.90    0.44    0.27    0.17    0.05    0.00    0.00    0.00       40      52
 2014 315    42    33   15.4      2  0.356    229    300      0    299    529    532      0     0.0  0.000      3      0  0.000  0.000  0.000  0.000  0.000  0.000  0.000    4.26   0.00   0.01      0      3  155.6   0.14   0.24    0.0   0.90     31    1.11    0.94    0.46    0.29    0.18    0.06    0.00    0.00    0.00       44      56
 2014 316    43    34   15.7      5  0.378    244    314      0    317    558    563      0     0.0  0.000      5      0  0.000  0.000  0.000  0.000  0.000  0.000  0.000    4.26   0.00   0.01      0      5  154.8   0.15   0.25    0.0   0.92     32    1.15    0.98    0.49    0.31    0.20    0.07    0.00    0.00    0.00       47      59
 2014 317    44    35   16.0      5  0.398    259    328      0    334    587    594     77     0.0  0.000      7      0  0.000  0.000  0.000  0.000  0.000  0.000  0.000    4.26   0.00   0.01      0      7  153.8   0.15   0.25    0.0   0.94     34    1.18    1.02    0.51    0.33    0.21    0.08    0.00    0.00    0.00       50      62
 2014 318    45    36   16.3      5  0.413    268    336      0    344    603    614    110     0.2  0.000     10      1  0.000  0.000  0.000  0.000  0.000  0.000  0.000    4.25   2.37   0.02      0     10  154.4   0.15   0.25    0.0   0.96     35    1.20    1.04    0.53    0.34    0.22    0.08    0.00    0.00    0.00       53      66
 2014 319    46    37   16.5      5  0.435    283    350      1    362    633    647    137     0.4  0.001     14      1  0.000  0.000  0.000  0.000  0.000  0.000  0.000    4.26   4.02   0.02      0     14  153.7   0.15   0.26    0.0   0.98     37    1.24    1.07    0.55    0.36    0.23    0.09    0.00    0.00    0.00       57      70
 2014 320    47    38   16.8      5  0.456    296    362      1    377    658    677    185     0.6  0.002     19      1  0.000  0.000  0.000  0.000  0.000  0.000  0.000    4.25   5.51   0.03      0     19  154.1   0.15   0.26    0.0   1.00     39    1.27    1.10    0.57    0.38    0.25    0.10    0.00    0.00    0.00       61      74
 2014 321    48    39   17.2      5  0.468    300    367      2    381    667    694    237     0.8  0.003     27      1  0.000  0.000  0.000  0.000  0.000  0.000  0.000    4.23   6.82   0.04      0     27  156.0   0.15   0.27    0.0   1.03     39    1.27    1.11    0.58    0.38    0.25    0.11    0.01    0.00    0.00       66      79
 2014 322    49    40   17.4      5  0.475    304    370      2    384    674    704    281     0.8  0.003     30      2  0.000  0.000  0.000  0.000  0.000  0.000  0.000    4.23   7.47   0.04      0     30  156.3   0.16   0.27    0.0   1.05     39    1.28    1.12    0.59    0.39    0.26    0.11    0.01    0.00    0.00       69      82
 2014 323    50    41   17.5      5  0.492    318    383      3    400    701    734    281     0.9  0.004     33      2  0.000  0.000  0.000  0.000  0.000  0.000  0.000    4.25   7.92   0.05      0     33  154.5   0.16   0.27    0.0   1.06     41    1.31    1.15    0.61    0.40    0.27    0.12    0.01    0.00    0.00       71      85
 2014 324    51    42   17.7      5  0.512    334    397      3    418    731    768    322     1.0  0.004     37      2  0.000  0.000  0.000  0.000  0.000  0.000  0.000    4.25   8.44   0.05      0     37  153.3   0.16   0.27    0.0   1.07     43    1.35    1.19    0.63    0.42    0.28    0.13    0.01    0.00    0.00       74      88
 2014 325    52    43   18.0      5  0.531    345    408      4    431    754    799    335     1.3  0.005     46      2  0.000  0.000  0.000  0.000  0.000  0.000  0.000    4.24   9.25   0.06      0     46  153.7   0.16   0.28    0.0   1.09     44    1.37    1.22    0.65    0.44    0.29    0.13    0.02    0.00    0.00       79      93
 2014 326    53    44   18.4      5  0.545    350    413      6    435    763    819    343     1.6  0.007     56      2  0.000  0.000  0.000  0.000  0.000  0.000  0.000    4.22   9.97   0.07      0     56  155.9   0.16   0.28    0.0   1.12     45    1.38    1.22    0.66    0.44    0.30    0.14    0.02    0.00    0.00       85      99
 2014 327    54    45   18.7      5  0.564    358    421      7    444    780    847    356     2.0  0.008     67      2  0.000  0.000  0.000  0.000  0.000  0.000  0.000    4.23  10.42   0.08      0     67  157.4   0.16   0.29    0.0   1.15     46    1.39    1.24    0.67    0.45    0.30    0.14    0.02    0.00    0.00       90     105
 2014 328    55    46   19.0      5  0.584    367    430      4    453    798    801    374     1.1  0.005      3      2  0.000  0.000  0.000  0.000  0.000  0.000  0.000    4.22  99.99   0.00      0      3  158.9   0.16   0.29    0.0   1.17     47    1.41    1.26    0.68    0.46    0.31    0.15    0.02    0.00    0.00       95     111
 2014 329    56    47   19.3      5  0.591    368    432      5    453    800    812    259     1.9  0.006     12      1  0.000  0.000  0.000  0.000  0.000  0.000  0.000    4.20  42.86   0.01      0     12  160.4   0.17   0.30    0.0   1.20     47    1.40    1.25    0.68    0.46    0.31    0.15    0.03    0.00    0.00      102     117
 2014 330    57    48   19.5      5  0.603    375    438      6    459    813    830    275     2.0  0.007     17      1  0.000  0.000  0.000  0.000  0.000  0.000  0.000    4.21  33.11   0.02      0     17  160.9   0.17   0.30    0.0   1.22     47    1.41    1.26    0.69    0.47    0.32    0.15    0.03    0.00    0.00      106     122
 2014 331    58    49   19.7      5  0.629    395    457      6    481    852    873    290     2.1  0.007     22      2  0.000  0.000  0.000  0.000  0.000  0.000  0.000    4.23  28.80   0.02      0     22  159.3   0.17   0.30    0.0   1.24     50    1.45    1.31    0.72    0.49    0.34    0.16    0.03    0.00    0.00      109     126
 2014 332    59    50   19.9      5  0.651    416    476      7    505    892    917    290     2.3  0.007     24      2  0.000  0.000  0.000  0.000  0.000  0.000  0.000    4.24  27.22   0.03      0     24  156.6   0.17   0.31    0.0   1.25     52    1.50    1.36    0.75    0.51    0.35    0.18    0.04    0.00    0.00      112     129
 2014 333    60    51   20.1      5  0.679    436    495      7    528    932    961    322     2.3  0.008     29      2  0.000  0.000  0.000  0.000  0.000  0.000  0.000    4.23  25.18   0.03      0     29  155.6   0.17   0.31    0.0   1.27     54    1.55    1.40    0.78    0.54    0.37    0.19    0.05    0.00    0.00      116     134
 2014 334    61    52   20.4      5  0.706    454    512      8    547    966   1001    343     2.4  0.008     36      2  0.000  0.000  0.000  0.000  0.000  0.000  0.000    4.23  23.57   0.04      0     36  155.5   0.17   0.31    0.0   1.29     56    1.58    1.44    0.81    0.56    0.39    0.20    0.05    0.00    0.00      123     140
 2014 335    62    53   20.7      5  0.732    468    526      2    563    995    995    354     0.5  0.002      0      2  0.000  0.000  0.000  0.000  0.000  0.000  0.000    4.22   0.00   0.00      0      0  156.4   0.17   0.31    0.0   1.31     58    1.61    1.47    0.83    0.57    0.40    0.21    0.06    0.00    0.00      130     147
 2014 336    63    54   21.0      5  0.759    479    538      2    574   1017   1023    170     1.4  0.002      6      1  0.000  0.000  0.000  0.000  0.000  0.000  0.000    4.21  39.75   0.01      0      6  158.5   0.18   0.32    0.0   1.34     59    1.63    1.50    0.85    0.58    0.41    0.21    0.06    0.01    0.00      138     155
 2014 337    64    55   21.3      5  0.787    492    550      3    588   1042   1055    232     1.3  0.003     13      1  0.000  0.000  0.000  0.000  0.000  0.000  0.000    4.21  23.35   0.01      0     13  160.2   0.18   0.32    0.0   1.37     61    1.66    1.52    0.86    0.60    0.42    0.22    0.07    0.01    0.00      146     163
 2014 338    65    56   21.6      5  0.817    507    566      2    604   1073   1073    265     0.7  0.002      0      1  0.000  0.000  0.000  0.000  0.000  0.000  0.000    4.20   0.00   0.00      0      0  161.2   0.18   0.33    0.0   1.39     62    1.69    1.55    0.89    0.62    0.43    0.23    0.07    0.01    0.00      154     171
 2014 339    66    57   21.9      5  0.849    521    580      3    619   1101   1109    229     1.2  0.002      8      1  0.000  0.000  0.000  0.000  0.000  0.000  0.000    4.20  33.10   0.01      0      8  162.9   0.18   0.33    0.0   1.42     64    1.71    1.58    0.90    0.63    0.44    0.24    0.08    0.01    0.00      163     179
 2014 340    67    58   22.3      5  0.879    535    594      4    634   1129   1147    267     1.4  0.003     17      1  0.000  0.000  0.000  0.000  0.000  0.000  0.000    4.20  20.83   0.02      0     17  164.2   0.18   0.34    0.0   1.44     65    1.74    1.61    0.92    0.64    0.45    0.24    0.08    0.01    0.00      171     188
 2014 341    68    59   22.6      5  0.894    541    601      5    640   1142   1169    300     1.6  0.004     27      2  0.000  0.000  0.000  0.000  0.000  0.000  0.000    4.18  17.20   0.02      0     27  165.3   0.19   0.34    0.0   1.47     66    1.75    1.62    0.93    0.65    0.46    0.25    0.09    0.02    0.00      180     196
 2014 342    69    60   22.8      5  0.897    542    603      3    640   1145   1145    370     0.8  0.003      0      2  0.000  0.000  0.000  0.000  0.000  0.000  0.000    4.17   0.00   0.00      0      0  165.6   0.19   0.35    0.0   1.49     66    1.75    1.62    0.93    0.65    0.46    0.25    0.09    0.02    0.00      187     203
 2014 343    70    61   23.0      5  0.923    562    622      4    662   1185   1193    291     1.3  0.003      8      2  0.000  0.000  0.000  0.000  0.000  0.000  0.000    4.21  44.63   0.01      0      8  164.2   0.19   0.35    0.0   1.51     68    1.78    1.66    0.96    0.67    0.47    0.26    0.09    0.02    0.00      193     209
 2014 344    71    62   23.2      5  0.952    586    645      4    687   1231   1244    398     1.1  0.003     13      2  0.000  0.000  0.000  0.000  0.000  0.000  0.000    4.22  32.41   0.01      0     13  162.3   0.19   0.35    0.0   1.52     71    1.83    1.71    0.99    0.70    0.49    0.27    0.10    0.02    0.00      198     213
 2014 345    72    63   23.4      5  0.979    610    667      3    713   1277   1277    398     0.7  0.002      0      3  0.000  0.000  0.000  0.000  0.000  0.000  0.000    4.22   0.00   0.00      0      0  160.4   0.19   0.35    0.0   1.53     73    1.88    1.76    1.02    0.72    0.51    0.28    0.11    0.03    0.00      202     218
 2014 346    73    64   23.5      5  0.994    623    679      3    725   1302   1305    395     0.7  0.002      3      2  0.000  0.000  0.000  0.000  0.000  0.000  0.000    4.22  99.99   0.00      0      3  159.7   0.19   0.35    0.0   1.54     75    1.91    1.78    1.04    0.73    0.52    0.29    0.11    0.03    0.00      206     223
 2014 347    74    65   23.7      5  1.025    647    702      4    751   1349   1359    395     0.9  0.003     10      3  0.000  0.000  0.000  0.000  0.000  0.000  0.000    4.23  36.99   0.01      0     10  158.4   0.19   0.35    0.0   1.56     77    1.96    1.84    1.07    0.76    0.54    0.30    0.12    0.03    0.00      211     228
 2014 348    75    66   23.9      5  1.056    671    725      4    776   1396   1412    459     1.0  0.003     16      2  0.000  0.000  0.000  0.000  0.000  0.000  0.000    4.23  27.41   0.01      0     16  157.3   0.19   0.36    0.0   1.57     80    2.01    1.89    1.11    0.78    0.56    0.31    0.13    0.04    0.00      217     234
 2014 349    76    67   24.0      5  1.085    694    746      4    800   1440   1440    459     0.8  0.002      0      3  0.000  0.000  0.000  0.000  0.000  0.000  0.000    4.23   0.00   0.00      0      0  156.4   0.19   0.36    0.0   1.59     82    2.05    1.93    1.14    0.81    0.57    0.33    0.13    0.04    0.00      222     240
 2014 350    77    68   24.3      5  1.116    716    768      4    824   1485   1492    465     0.9  0.003      7      3  0.000  0.000  0.000  0.000  0.000  0.000  0.000    4.23  62.17   0.00      0      7  155.8   0.19   0.36    0.0   1.61     85    2.10    1.98    1.17    0.83    0.59    0.34    0.14    0.05    0.00      230     247
 2014 351    78    69   24.5      5  1.144    735    786      6    843   1521   1538    518     1.1  0.004     18      3  0.000  0.000  0.000  0.000  0.000  0.000  0.000    4.22  31.83   0.01      0     18  155.7   0.20   0.36    0.0   1.63     87    2.13    2.02    1.19    0.85    0.61    0.35    0.14    0.05    0.00      239     256
 2014 352    79    70   24.7      5  1.175    759    809      5    868   1568   1568    583     0.8  0.003      0      3  0.000  0.000  0.000  0.000  0.000  0.000  0.000    4.23   0.00   0.00      0      0  154.9   0.20   0.36    0.0   1.64     89    2.18    2.06    1.22    0.87    0.62    0.36    0.15    0.05    0.01      246     263
 2014 353    80    71   25.0      5  1.207    781    831      6    890   1612   1622    548     1.1  0.004     11      3  0.000  0.000  0.000  0.000  0.000  0.000  0.000    4.23  57.35   0.01      0     11  154.6   0.20   0.37    0.0   1.66     92    2.22    2.11    1.25    0.89    0.64    0.37    0.16    0.06    0.01      255     272
 2014 354    81    72   25.2      5  1.235    798    849      8    909   1648   1675    601     1.3  0.005     27      3  0.000  0.000  0.000  0.000  0.000  0.000  0.000    4.22  29.96   0.02      0     27  154.6   0.20   0.37    0.0   1.68     94    2.26    2.15    1.28    0.91    0.65    0.38    0.16    0.06    0.01      267     282
 2014 355    82    73   25.5      5  1.248    804    856     10    913   1660   1708    657     1.6  0.006     48      4  0.000  0.000  0.000  0.000  0.000  0.000  0.000    4.21  21.83   0.03      0     48  155.3   0.20   0.37    0.0   1.71     94    2.27    2.15    1.28    0.92    0.66    0.38    0.17    0.06    0.01      280     294
 2014 356    83    74   25.9      5  1.261    806    861      6    914   1667   1667    716     0.8  0.003      0      4  0.000  0.000  0.000  0.000  0.000  0.000  0.000    4.20   0.00   0.00      0      0  156.5   0.20   0.38    0.0   1.73     94    2.27    2.15    1.29    0.92    0.66    0.38    0.17    0.06    0.01      293     307
 2014 357    84    75   26.2      5  1.280    812    869      8    919   1681   1700    500     1.5  0.004     18      3  0.000  0.000  0.000  0.000  0.000  0.000  0.000    4.20  41.01   0.01      0     18  157.6   0.20   0.38    0.0   1.76     95    2.27    2.16    1.29    0.92    0.66    0.39    0.17    0.07    0.01      306     319
 2014 358    85    76   26.5      5  1.289    813    872      6    917   1685   1685    571     1.0  0.003      0      3  0.000  0.000  0.000  0.000  0.000  0.000  0.000    4.19   0.00   0.00      0      0  158.6   0.20   0.39    0.0   1.79     95    2.27    2.16    1.29    0.92    0.66    0.39    0.17    0.07    0.01      320     332
 2014 359    86    77   26.7      5  1.303    822    882      7    926   1705   1720    583     1.2  0.004     15      3  0.000  0.000  0.000  0.000  0.000  0.000  0.000    4.19  46.97   0.01      0     15  158.5   0.20   0.39    0.0   1.80     96    2.28    2.17    1.30    0.93    0.67    0.39    0.17    0.07    0.01      331     342
 2014 360    87    78   26.9      5  1.317    830    891      9    933   1721   1756    759     1.2  0.005     34      4  0.000  0.000  0.000  0.000  0.000  0.000  0.000    4.19  26.07   0.02      0     34  158.6   0.21   0.39    0.0   1.80     97    2.29    2.19    1.31    0.94    0.68    0.39    0.18    0.07    0.01      343     352
 2014 361    88    79   27.2      5  1.333    836    900     12    938   1736   1799    917     1.3  0.007     63      5  0.000  0.000  0.000  0.000  0.000  0.000  0.000    4.18  18.98   0.04      0     63  159.5   0.21   0.39    0.0   1.80     97    2.30    2.19    1.32    0.94    0.68    0.40    0.18    0.07    0.01      358     365
 2014 362    89    80   27.4      5  1.352    846    911     16    948   1758   1852   1051     1.5  0.009     94      6  0.000  0.000  0.000  0.000  0.000  0.000  0.000    4.19  16.66   0.05      0     94  159.8   0.21   0.40    0.0   1.80     98    2.31    2.21    1.33    0.95    0.69    0.40    0.18    0.07    0.02      372     377
 2014 363    90    81   27.7      5  1.367    854    921      8    954   1774   1774   1187     0.7  0.005      0      7  0.000  0.000  0.000  0.000  0.000  0.000  0.000    4.18   0.00   0.00      0      0  160.2   0.21   0.40    0.0   1.80     99    2.32    2.22    1.34    0.96    0.69    0.41    0.18    0.08    0.02      386     390
 2014 364    91    82   27.9      5  1.353    845    918     12    941   1763   1787   1201     1.0  0.007     24      6  0.000  0.000  0.000  0.000  0.000  0.000  0.000    4.16  49.79   0.01      0     24  160.1   0.21   0.41    0.0   1.80     98    2.29    2.19    1.32    0.95    0.68    0.40    0.18    0.07    0.02      400     403
 2014 365    92    83   28.1      5  1.344    838    914     17    933   1752   1804   1409     1.2  0.009     52      8  0.000  0.000  0.000  0.000  0.000  0.000  0.000    4.16  31.89   0.03      0     52  160.5   0.21   0.41    0.0   1.80     97    2.28    2.18    1.31    0.94    0.68    0.40    0.18    0.07    0.02      414     414
 2015 001    93    84   28.3      5  1.344    838    914     17    933   1752   1804   1409     1.2  0.009     52      8  0.000  0.000  0.000  0.000  0.000  0.000  0.000    4.16  31.89   0.03      0     52  160.5   0.21   0.41    0.0   1.80     97    2.28    2.18    1.31    0.94    0.68    0.40    0.18    0.07    0.02      414     414

*DSSAT Cropping System Model Ver. 4.8.5.017 pre-release  JUN 28, 2025 01:29:44

*RUN   2        : Radiance                  CRGRO048 UFBA1601    1
 MODEL          : CRGRO048 - Strawberry
 EXPERIMENT     : UFBA1601 SR 2016 BALM STRAWBERRY VARIETY TRIAL
 DATA PATH      : /data/Strawberry/
 TREATMENT  1   : Radiance                  CRGRO048
  
!                                                                                                                                                                                                                                                           Root Dens. (cm/cm3) by soil depth (cm):
!                                                                                                                                                                                                                                                           0-5    5-15   15-30   30-45   45-60   60-90  90-120 120-150 150-180
@YEAR DOY   DAS   DAP   L#SD   GSTD   LAID   LWAD   SWAD   GWAD   RWAD   VWAD   CWAD   G#AD    GWGD   HIAD   PWAD   P#AD   WSPD   WSGD   NSTD  PST1A  PST2A   KSTD   EWSD    LN%D   SH%D   HIPD   PWDD   PWTD   SLAD   CHTD   CWID   NWAD   RDPD   RLAD    RL1D    RL2D    RL3D    RL4D    RL5D    RL6D    RL7D    RL8D    RL9D    SNW0C   SNW1C
 2016 282     9     0    4.6      0  0.065     49     74      0     52    123    123      0     0.0  0.000      0      0  0.000  0.000  0.000  0.000  0.000  0.000  0.000    4.40   0.00   0.00      0      0  132.2   0.01   0.02    0.0   0.13      5    0.52    0.26    0.00    0.00    0.00    0.00    0.00    0.00    0.00        0       1
 2016 283    10     1    4.9      0  0.065     49     74      0     52    123    123      0     0.0  0.000      0      0  0.000  0.000  0.000  0.000  0.000  0.000  0.000    4.40   0.00   0.00      0      0  132.4   0.06   0.09    0.0   0.15      5    0.52    0.26    0.00    0.00    0.00    0.00    0.00    0.00    0.00        0       1
 2016 284    11     2    5.3      0  0.065     49     79      0     55    128    128      0     0.0  0.000      0      0  0.000  0.000  0.000  0.000  0.000  0.000  0.000    4.39   0.00   0.00      0      0  132.8   0.07   0.10    0.0   0.18      6    0.54    0.28    0.00    0.00    0.00    0.00    0.00    0.00    0.00        1       2
 2016 285    12     3    5.7      0  0.065     49     83      0     59    132    132      0     0.0  0.000      0      0  0.000  0.000  0.000  0.000  0.000  0.000  0.000    4.38   0.00   0.00      0      0  133.3   0.07   0.11    0.0   0.21      6    0.55    0.30    0.01    0.00    0.00    0.00    0.00    0.00    0.00        2       3
 2016 286    13     4    6.0      0  0.064     48     88      0     63    137    137      0     0.0  0.000      0      0  0.000  0.000  0.000  0.000  0.000  0.000  0.000    4.37   0.00   0.00      0      0  133.7   0.07   0.11    0.0   0.23      6    0.57    0.32    0.02    0.00    0.00    0.00    0.00    0.00    0.00        2       4
 2016 287    14     5    6.4      0  0.064     48     94      0     67    142    142      0     0.0  0.000      0      0  0.000  0.000  0.000  0.000  0.000  0.000  0.000    4.36   0.00   0.00      0      0  134.0   0.08   0.12    0.0   0.26      7    0.59    0.34    0.03    0.00    0.00    0.00    0.00    0.00    0.00        3       5
 2016 288    15     6    6.8      0  0.064     48    100      0     72    147    147      0     0.0  0.000      0      0  0.000  0.000  0.000  0.000  0.000  0.000  0.000    4.35   0.00   0.00      0      0  134.4   0.08   0.12    0.0   0.28      7    0.60    0.36    0.04    0.00    0.00    0.00    0.00    0.00    0.00        4       5
 2016 289    16     7    7.1      0  0.064     47    104      0     75    151    151      0     0.0  0.000      0      0  0.000  0.000  0.000  0.000  0.000  0.000  0.000    4.34   0.00   0.00      0      0  134.8   0.08   0.13    0.0   0.31      8    0.61    0.38    0.05    0.00    0.00    0.00    0.00    0.00    0.00        4       6
 2016 290    17     8    7.5      0  0.064     47    109      0     79    156    156      0     0.0  0.000      0      0  0.000  0.000  0.000  0.000  0.000  0.000  0.000    4.33   0.00   0.00      0      0  135.3   0.09   0.14    0.0   0.33      8    0.62    0.39    0.06    0.00    0.00    0.00    0.00    0.00    0.00        5       7
 2016 291    18     9    7.8      0  0.065     48    114      0     83    162    162      0     0.0  0.000      0      0  0.000  0.000  0.000  0.000  0.000  0.000  0.000    4.32   0.00   0.00      0      0  136.3   0.09   0.14    0.0   0.36      8    0.63    0.40    0.08    0.01    0.00    0.00    0.00    0.00    0.00        5       8
 2016 292    19    10    8.2      0  0.071     51    118      0     86    168    168      0     0.0  0.000      0      0  0.000  0.000  0.000  0.000  0.000  0.000  0.000    4.31   0.00   0.00      0      0  139.8   0.10   0.15    0.0   0.38      9    0.64    0.41    0.08    0.01    0.00    0.00    0.00    0.00    0.00        6      10
 2016 293    20    11    8.5      0  0.077     54    122      0     89    176    176      0     0.0  0.000      0      0  0.000  0.000  0.000  0.000  0.000  0.000  0.000    4.31   0.00   0.00      0      0  143.0   0.10   0.15    0.0   0.41      9    0.65    0.42    0.09    0.01    0.00    0.00    0.00    0.00    0.00        7      11
 2016 294    21    12    8.9      0  0.084     58    126      0     93    184    184      0     0.0  0.000      0      0  0.000  0.000  0.000  0.000  0.000  0.000  0.000    4.31   0.00   0.00      0      0  145.9   0.10   0.16    0.0   0.43      9    0.66    0.43    0.10    0.02    0.00    0.00    0.00    0.00    0.00        7      12
 2016 295    22    13    9.2      0  0.092     62    131      0     97    193    193      0     0.0  0.000      0      0  0.000  0.000  0.000  0.000  0.000  0.000  0.000    4.30   0.00   0.00      0      0  148.7   0.11   0.16    0.0   0.46     10    0.66    0.44    0.11    0.03    0.00    0.00    0.00    0.00    0.00        8      13
 2016 296    23    14    9.5      0  0.100     67    138      0    103    205    205      0     0.0  0.000      0      0  0.000  0.000  0.000  0.000  0.000  0.000  0.000    4.31   0.00   0.00      0      0  148.5   0.11   0.17    0.0   0.48     10    0.68    0.46    0.12    0.04    0.00    0.00    0.00    0.00    0.00        9      14
 2016 297    24    15    9.8      0  0.108     73    145      0    109    218    218      0     0.0  0.000      0      0  0.000  0.000  0.000  0.000  0.000  0.000  0.000    4.31   0.00   0.00      0      0  147.5   0.11   0.17    0.0   0.50     11    0.69    0.48    0.14    0.05    0.00    0.00    0.00    0.00    0.00       10      15
 2016 298    25    16   10.1      0  0.117     79    152      0    116    231    231      0     0.0  0.000      0      0  0.000  0.000  0.000  0.000  0.000  0.000  0.000    4.30   0.00   0.00      0      0  148.0   0.11   0.18    0.0   0.52     12    0.71    0.50    0.15    0.06    0.01    0.00    0.00    0.00    0.00       11      17
 2016 299    26    17   10.5      0  0.126     84    158      0    122    243    243      0     0.0  0.000      0      0  0.000  0.000  0.000  0.000  0.000  0.000  0.000    4.29   0.00   0.00      0      0  149.4   0.12   0.18    0.0   0.55     12    0.72    0.51    0.16    0.07    0.01    0.00    0.00    0.00    0.00       12      18
 2016 300    27    18   10.8      0  0.138     91    165      0    129    256    256      0     0.0  0.000      0      0  0.000  0.000  0.000  0.000  0.000  0.000  0.000    4.29   0.00   0.00      0      0  151.8   0.12   0.19    0.0   0.57     13    0.74    0.53    0.18    0.08    0.02    0.00    0.00    0.00    0.00       13      20
 2016 301    28    19   11.2      0  0.150     97    171      0    135    268    268      0     0.0  0.000      0      0  0.000  0.000  0.000  0.000  0.000  0.000  0.000    4.28   0.00   0.00      0      0  154.8   0.12   0.19    0.0   0.60     14    0.75    0.55    0.19    0.09    0.03    0.00    0.00    0.00    0.00       15      22
 2016 302    29    20   11.6      0  0.162    103    177      0    142    280    280      0     0.0  0.000      0      0  0.000  0.000  0.000  0.000  0.000  0.000  0.000    4.28   0.00   0.00      0      0  157.8   0.12   0.20    0.0   0.63     15    0.76    0.56    0.20    0.10    0.04    0.00    0.00    0.00    0.00       16      23
 2016 303    30    21   11.9      0  0.175    109    183      0    149    292    292      0     0.0  0.000      0      0  0.000  0.000  0.000  0.000  0.000  0.000  0.000    4.28   0.00   0.00      0      0  160.6   0.13   0.20    0.0   0.65     15    0.78    0.58    0.21    0.11    0.05    0.00    0.00    0.00    0.00       17      25
 2016 304    31    22   12.3      0  0.190    117    190      0    158    306    306      0     0.0  0.000      0      0  0.000  0.000  0.000  0.000  0.000  0.000  0.000    4.28   0.00   0.00      0      0  162.9   0.13   0.21    0.0   0.68     16    0.79    0.60    0.23    0.12    0.05    0.00    0.00    0.00    0.00       19      27
 2016 305    32    23   12.7      0  0.206    126    198      0    169    324    324      0     0.0  0.000      0      0  0.000  0.000  0.000  0.000  0.000  0.000  0.000    4.28   0.00   0.00      0      0  164.3   0.13   0.22    0.0   0.70     17    0.82    0.63    0.25    0.14    0.07    0.01    0.00    0.00    0.00       20      29
 2016 306    33    24   13.0      1  0.222    134    206      0    180    340    340      0     0.0  0.000      0      0  0.000  0.000  0.000  0.000  0.000  0.000  0.000    4.28   0.00   0.00      0      0  165.1   0.14   0.22    0.0   0.73     18    0.84    0.65    0.27    0.15    0.08    0.01    0.00    0.00    0.00       22      32
 2016 307    34    25   13.3      1  0.237    142    213      0    190    354    354      0     0.0  0.000      0      0  0.000  0.000  0.000  0.000  0.000  0.000  0.000    4.27   0.00   0.00      0      0  167.2   0.14   0.23    0.0   0.75     19    0.86    0.68    0.28    0.16    0.09    0.01    0.00    0.00    0.00       24      34
 2016 308    35    26   13.7      1  0.254    150    221      0    201    371    371      0     0.0  0.000      0      0  0.000  0.000  0.000  0.000  0.000  0.000  0.000    4.27   0.00   0.00      0      0  169.2   0.14   0.23    0.0   0.78     21    0.88    0.70    0.30    0.18    0.10    0.02    0.00    0.00    0.00       26      37
 2016 309    36    27   14.1      1  0.271    160    230      0    213    389    389      0     0.0  0.000      0      0  0.000  0.000  0.000  0.000  0.000  0.000  0.000    4.27   0.00   0.00      0      0  170.0   0.14   0.24    0.0   0.80     22    0.91    0.73    0.32    0.19    0.11    0.02    0.00    0.00    0.00       28      39
 2016 310    37    28   14.4      1  0.292    171    240      0    227    411    411      0     0.0  0.000      0      0  0.000  0.000  0.000  0.000  0.000  0.000  0.000    4.27   0.00   0.00      0      0  171.3   0.14   0.24    0.0   0.83     23    0.94    0.76    0.34    0.21    0.12    0.03    0.00    0.00    0.00       31      42
 2016 311    38    29   14.8      2  0.313    182    251      0    241    432    432      0     0.0  0.000      0      0  0.000  0.000  0.000  0.000  0.000  0.000  0.000    4.26   0.00   0.00      0      0  172.2   0.15   0.25    0.0   0.85     25    0.97    0.79    0.36    0.23    0.14    0.04    0.00    0.00    0.00       33      45
 2016 312    39    30   15.1      2  0.332    191    260      0    254    451    451      0     0.0  0.000      0      0  0.000  0.000  0.000  0.000  0.000  0.000  0.000    4.25   0.00   0.00      0      0  173.4   0.15   0.25    0.0   0.88     26    0.99    0.82    0.38    0.24    0.15    0.04    0.00    0.00    0.00       36      48
 2016 313    40    31   15.5      2  0.354    204    272      0    269    475    476      0     0.0  0.000      0      0  0.000  0.000  0.000  0.000  0.000  0.000  0.000    4.26   0.00   0.00      0      0  173.9   0.15   0.26    0.0   0.90     28    1.02    0.85    0.41    0.26    0.16    0.05    0.00    0.00    0.00       39      52
 2016 314    41    32   15.8      2  0.375    215    282      0    283    497    498      0     0.0  0.000      1      0  0.000  0.000  0.000  0.000  0.000  0.000  0.000    4.25   0.00   0.00      0      1  174.7   0.15   0.26    0.0   0.93     29    1.05    0.88    0.43    0.27    0.17    0.06    0.00    0.00    0.00       42      55
 2016 315    42    33   16.2      2  0.398    229    296      0    302    525    526      0     0.0  0.000      1      0  0.000  0.000  0.000  0.000  0.000  0.000  0.000    4.25   0.00   0.00      0      1  173.8   0.16   0.27    0.0   0.95     31    1.09    0.92    0.45    0.30    0.19    0.07    0.00    0.00    0.00       45      59
 2016 316    43    34   16.5      5  0.420    243    310      0    320    553    555      2     0.0  0.000      2      0  0.000  0.000  0.000  0.000  0.000  0.000  0.000    4.25   0.00   0.00      0      2  172.6   0.16   0.27    0.0   0.98     33    1.13    0.96    0.48    0.32    0.20    0.08    0.00    0.00    0.00       48      63
 2016 317    44    35   16.8      5  0.442    258    324      0    339    582    585      2     0.4  0.000      3      0  0.000  0.000  0.000  0.000  0.000  0.000  0.000    4.25   0.21   0.01      0      3  171.5   0.16   0.28    0.0   1.00     35    1.16    1.00    0.51    0.34    0.22    0.09    0.01    0.00    0.00       51      66
 2016 318    45    36   17.1      5  0.463    272    337      0    356    609    614     31     0.0  0.000      5      0  0.000  0.000  0.000  0.000  0.000  0.000  0.000    4.25   0.28   0.01      0      5  170.5   0.16   0.28    0.0   1.02     36    1.20    1.04    0.53    0.36    0.23    0.10    0.01    0.00    0.00       55      70
 2016 319    46    37   17.5      5  0.477    276    342      0    362    619    626     62     0.2  0.000      8      0  0.000  0.000  0.000  0.000  0.000  0.000  0.000    4.22   1.90   0.01      0      8  172.9   0.16   0.29    0.0   1.05     37    1.21    1.05    0.54    0.36    0.24    0.11    0.01    0.00    0.00       60      75
 2016 320    47    38   17.8      5  0.494    286    352      0    373    638    649     99     0.4  0.001     12      1  0.000  0.000  0.000  0.000  0.000  0.000  0.000    4.23   3.08   0.02      0     12  172.9   0.17   0.29    0.0   1.07     38    1.23    1.07    0.56    0.37    0.25    0.11    0.01    0.00    0.00       64      80
 2016 321    48    39   18.1      5  0.517    301    367      1    392    667    683    150     0.5  0.001     16      1  0.000  0.000  0.000  0.000  0.000  0.000  0.000    4.24   4.43   0.02      0     16  171.8   0.17   0.30    0.0   1.09     40    1.27    1.11    0.58    0.39    0.26    0.12    0.02    0.00    0.00       69      84
 2016 322    49    40   18.4      5  0.540    318    383      1    413    700    721    208     0.6  0.002     21      1  0.000  0.000  0.000  0.000  0.000  0.000  0.000    4.24   5.66   0.03      0     21  170.2   0.17   0.30    0.0   1.11     42    1.31    1.15    0.61    0.42    0.28    0.13    0.02    0.00    0.00       73      88
 2016 323    50    41   18.7      5  0.564    333    398      2    431    730    758    257     0.8  0.003     28      1  0.000  0.000  0.000  0.000  0.000  0.000  0.000    4.23   6.99   0.04      0     28  169.6   0.17   0.30    0.0   1.14     44    1.34    1.19    0.64    0.44    0.30    0.14    0.02    0.00    0.00       78      93
 2016 324    51    42   19.0      5  0.587    347    412      3    449    759    795    270     1.1  0.004     36      1  0.000  0.000  0.000  0.000  0.000  0.000  0.000    4.23   8.13   0.04      0     36  169.1   0.17   0.31    0.0   1.16     46    1.38    1.23    0.66    0.45    0.31    0.15    0.03    0.00    0.00       82      99
 2016 325    52    43   19.2      5  0.612    367    431      4    473    797    838    291     1.2  0.004     41      2  0.000  0.000  0.000  0.000  0.000  0.000  0.000    4.24   8.64   0.05      0     41  166.9   0.17   0.31    0.0   1.18     49    1.43    1.28    0.70    0.48    0.33    0.17    0.04    0.00    0.00       86     103
 2016 326    53    44   19.4      5  0.636    385    449      3    496    834    852    312     0.8  0.003     18      2  0.000  0.000  0.000  0.000  0.000  0.000  0.000    4.24  14.27   0.02      0     18  165.0   0.17   0.31    0.0   1.19     51    1.47    1.32    0.73    0.50    0.35    0.18    0.04    0.00    0.00       89     107
 2016 327    54    45   19.7      5  0.661    405    467      3    519    872    894    250     1.2  0.003     22      1  0.000  0.000  0.000  0.000  0.000  0.000  0.000    4.25  13.94   0.03      0     22  163.5   0.18   0.31    0.0   1.21     53    1.52    1.37    0.76    0.53    0.36    0.19    0.05    0.00    0.00       92     111
 2016 328    55    46   19.9      5  0.683    418    481      4    536    899    928    274     1.4  0.004     29      1  0.000  0.000  0.000  0.000  0.000  0.000  0.000    4.23  13.49   0.03      0     29  163.4   0.18   0.32    0.0   1.23     55    1.55    1.41    0.78    0.54    0.38    0.20    0.06    0.00    0.00       98     117
 2016 329    56    47   20.3      5  0.706    430    494      3    551    924    924    298     0.9  0.003      0      2  0.000  0.000  0.000  0.000  0.000  0.000  0.000    4.23   0.00   0.00      0      0  164.0   0.18   0.32    0.0   1.26     57    1.58    1.44    0.80    0.56    0.39    0.21    0.06    0.00    0.00      105     124
 2016 330    57    48   20.6      5  0.734    445    509      4    568    954    961    239     1.5  0.004      7      1  0.000  0.000  0.000  0.000  0.000  0.000  0.000    4.22  48.24   0.01      0      7  165.0   0.18   0.33    0.0   1.28     58    1.61    1.47    0.83    0.58    0.40    0.22    0.07    0.00    0.00      112     131
 2016 331    58    49   20.9      5  0.757    457    522      5    583    979    995    279     1.6  0.005     16      2  0.000  0.000  0.000  0.000  0.000  0.000  0.000    4.22  28.66   0.02      0     16  165.6   0.18   0.33    0.0   1.31     60    1.64    1.50    0.85    0.59    0.41    0.22    0.07    0.00    0.00      119     138
 2016 332    59    50   21.2      5  0.783    474    538      5    602   1012   1035    290     1.9  0.005     23      2  0.000  0.000  0.000  0.000  0.000  0.000  0.000    4.22  24.25   0.02      0     23  165.2   0.18   0.33    0.0   1.33     62    1.68    1.54    0.87    0.61    0.43    0.23    0.08    0.00    0.00      125     145
 2016 333    60    51   21.5      5  0.804    485    551      2    616   1036   1036    301     0.7  0.002      0      2  0.000  0.000  0.000  0.000  0.000  0.000  0.000    4.21   0.00   0.00      0      0  165.7   0.19   0.34    0.0   1.35     63    1.70    1.56    0.89    0.63    0.44    0.24    0.08    0.01    0.00      132     153
 2016 334    61    52   21.8      5  0.833    500    566      3    633   1065   1073    204     1.3  0.002      7      1  0.000  0.000  0.000  0.000  0.000  0.000  0.000    4.21  35.41   0.01      0      7  166.8   0.19   0.34    0.0   1.38     65    1.73    1.60    0.91    0.64    0.45    0.25    0.09    0.01    0.00      140     161
 2016 335    62    53   22.1      5  0.855    508    575      3    641   1082   1099    253     1.4  0.003     17      1  0.000  0.000  0.000  0.000  0.000  0.000  0.000    4.20  20.84   0.02      0     17  168.5   0.19   0.35    0.0   1.40     66    1.75    1.61    0.93    0.65    0.46    0.25    0.09    0.01    0.00      148     170
 2016 336    63    54   22.4      5  0.882    519    587      2    654   1106   1106    302     0.8  0.002      0      2  0.000  0.000  0.000  0.000  0.000  0.000  0.000    4.20   0.00   0.00      0      0  169.9   0.19   0.35    0.0   1.43     67    1.77    1.64    0.94    0.67    0.47    0.26    0.10    0.01    0.00      157     179
 2016 337    64    55   22.7      5  0.911    537    606      3    675   1143   1152    308     1.0  0.003      9      2  0.000  0.000  0.000  0.000  0.000  0.000  0.000    4.20  34.08   0.01      0      9  169.7   0.19   0.36    0.0   1.45     70    1.81    1.68    0.97    0.69    0.48    0.27    0.10    0.02    0.00      165     187
 2016 338    65    56   23.0      5  0.939    555    624      4    696   1179   1199    390     1.1  0.004     20      2  0.000  0.000  0.000  0.000  0.000  0.000  0.000    4.20  21.38   0.02      0     20  169.1   0.20   0.36    0.0   1.48     72    1.85    1.72    1.00    0.71    0.50    0.28    0.11    0.02    0.00      173     195
 2016 339    66    57   23.3      5  0.967    570    640      6    713   1210   1244    463     1.3  0.005     34      3  0.000  0.000  0.000  0.000  0.000  0.000  0.000    4.19  17.23   0.03      0     34  169.6   0.20   0.36    0.0   1.50     74    1.88    1.75    1.02    0.72    0.51    0.29    0.11    0.02    0.00      182     204
 2016 340    67    58   23.6      5  0.989    579    651      4    723   1230   1230    512     0.9  0.004      0      3  0.000  0.000  0.000  0.000  0.000  0.000  0.000    4.19   0.00   0.00      0      0  170.7   0.20   0.37    0.0   1.53     75    1.90    1.77    1.03    0.73    0.52    0.30    0.12    0.02    0.00      192     213
 2016 341    68    59   23.9      5  0.995    579    652      6    721   1231   1247    475     1.3  0.005     16      3  0.000  0.000  0.000  0.000  0.000  0.000  0.000    4.17  39.01   0.01      0     16  171.9   0.20   0.37    0.0   1.55     75    1.89    1.77    1.03    0.73    0.52    0.30    0.12    0.03    0.00      202     223
 2016 342    69    60   24.2      5  1.023    594    668      8    738   1263   1295    531     1.5  0.006     33      3  0.000  0.000  0.000  0.000  0.000  0.000  0.000    4.19  24.70   0.03      0     33  172.2   0.20   0.38    0.0   1.58     76    1.92    1.80    1.05    0.75    0.53    0.30    0.12    0.03    0.00      211     233
 2016 343    70    61   24.5      5  1.042    605    680      6    750   1285   1285    627     0.9  0.004      0      4  0.000  0.000  0.000  0.000  0.000  0.000  0.000    4.19   0.00   0.00      0      0  172.2   0.20   0.38    0.0   1.60     78    1.94    1.82    1.07    0.76    0.54    0.31    0.13    0.03    0.00      220     241
 2016 344    71    62   24.7      5  1.058    618    693      7    764   1311   1322    574     1.2  0.005     11      3  0.000  0.000  0.000  0.000  0.000  0.000  0.000    4.19  61.27   0.01      0     11  171.3   0.21   0.38    0.0   1.62     79    1.97    1.85    1.09    0.77    0.55    0.32    0.13    0.03    0.00      228     248
 2016 345    72    63   24.9      5  1.087    638    714      8    787   1352   1377    651     1.3  0.006     25      4  0.000  0.000  0.000  0.000  0.000  0.000  0.000    4.20  33.38   0.02      0     25  170.3   0.21   0.39    0.0   1.64     81    2.01    1.89    1.11    0.80    0.57    0.33    0.14    0.04    0.00      235     256
 2016 346    73    64   25.2      5  1.104    647    725     11    797   1373   1418    716     1.5  0.008     45      4  0.000  0.000  0.000  0.000  0.000  0.000  0.000    4.19  23.98   0.03      0     45  170.6   0.21   0.39    0.0   1.66     83    2.03    1.91    1.13    0.81    0.58    0.33    0.14    0.04    0.00      245     266
 2016 347    74    65   25.4      5  1.125    656    736      5    806   1392   1392    788     0.6  0.004      0      4  0.000  0.000  0.000  0.000  0.000  0.000  0.000    4.18   0.00   0.00      0      0  171.5   0.21   0.39    0.0   1.69     84    2.04    1.93    1.14    0.82    0.58    0.34    0.14    0.04    0.00      255     277
 2016 348    75    66   25.7      5  1.151    669    750      7    820   1419   1439    611     1.2  0.005     20      3  0.000  0.000  0.000  0.000  0.000  0.000  0.000    4.18  35.63   0.01      0     20  172.0   0.21   0.40    0.0   1.71     85    2.07    1.95    1.16    0.83    0.59    0.35    0.15    0.05    0.01      266     287
 2016 349    76    67   26.0      5  1.173    680    762     10    832   1442   1487    785     1.2  0.006     45      4  0.000  0.000  0.000  0.000  0.000  0.000  0.000    4.18  21.33   0.03      0     45  172.6   0.21   0.40    0.0   1.74     86    2.09    1.98    1.17    0.84    0.60    0.35    0.15    0.05    0.01      278     298
 2016 350    77    68   26.3      5  1.193    692    777      7    845   1469   1469    929     0.7  0.005      0      6  0.000  0.000  0.000  0.000  0.000  0.000  0.000    4.18   0.00   0.00      0      0  172.2   0.21   0.40    0.0   1.76     88    2.11    2.00    1.19    0.85    0.61    0.36    0.16    0.05    0.01      289     309
 2016 351    78    69   26.5      5  1.216    709    795      9    864   1504   1526    832     1.1  0.006     22      4  0.000  0.000  0.000  0.000  0.000  0.000  0.000    4.18  42.77   0.01      0     22  171.3   0.21   0.41    0.0   1.78     90    2.14    2.04    1.21    0.87    0.63    0.37    0.16    0.05    0.01      299     318
 2016 352    79    70   26.7      5  1.234    720    807     12    875   1527   1578    920     1.4  0.008     51      5  0.000  0.000  0.000  0.000  0.000  0.000  0.000    4.18  24.62   0.03      0     51  171.3   0.21   0.41    0.0   1.80     91    2.16    2.06    1.23    0.88    0.63    0.37    0.17    0.06    0.01      311     329
 2016 353    80    71   27.0      5  1.245    724    813     16    877   1537   1617    979     1.6  0.010     80      5  0.000  0.000  0.000  0.000  0.000  0.000  0.000    4.17  20.07   0.05      0     80  172.0   0.21   0.41    0.0   1.80     91    2.17    2.06    1.23    0.88    0.64    0.38    0.17    0.06    0.01      322     341
 2016 354    81    72   27.2      5  1.261    732    823     10    885   1554   1554   1101     0.9  0.006      0      6  0.000  0.000  0.000  0.000  0.000  0.000  0.000    4.17   0.00   0.00      0      0  172.4   0.22   0.42    0.0   1.80     92    2.18    2.07    1.24    0.89    0.64    0.38    0.17    0.06    0.01      335     353
 2016 355    82    73   27.5      5  1.266    731    824     13    882   1555   1587    941     1.4  0.008     32      5  0.000  0.000  0.000  0.000  0.000  0.000  0.000    4.16  41.77   0.02      0     32  173.2   0.22   0.42    0.0   1.80     92    2.17    2.06    1.24    0.89    0.64    0.38    0.17    0.06    0.02      349     366
 2016 356    83    74   27.7      5  1.265    729    825     17    879   1555   1619   1152     1.5  0.010     64      6  0.000  0.000  0.000  0.000  0.000  0.000  0.000    4.15  26.13   0.04      0     64  173.5   0.22   0.42    0.0   1.80     92    2.16    2.06    1.23    0.89    0.64    0.38    0.17    0.06    0.02      362     376
 2016 357    84    75   27.9      5  1.284    743    840      8    893   1583   1583   1320     0.6  0.005      0      7  0.000  0.000  0.000  0.000  0.000  0.000  0.000    4.17   0.00   0.00      0      0  172.8   0.22   0.43    0.0   1.80     93    2.18    2.08    1.25    0.90    0.65    0.38    0.17    0.06    0.02      374     387
 2016 358    85    76   28.1      5  1.303    756    856     12    907   1612   1645   1043     1.1  0.007     33      6  0.000  0.000  0.000  0.000  0.000  0.000  0.000    4.17  35.48   0.02      0     33  172.3   0.22   0.43    0.0   1.80     94    2.21    2.11    1.27    0.91    0.66    0.39    0.18    0.07    0.02      386     398
 2016 359    86    77   28.3      5  1.319    766    867     16    917   1634   1703   1266     1.2  0.009     70      7  0.000  0.000  0.000  0.000  0.000  0.000  0.000    4.17  22.41   0.04      0     70  172.1   0.22   0.43    0.0   1.80     95    2.22    2.13    1.28    0.92    0.67    0.40    0.18    0.07    0.02      400     409
 2016 360    87    78   28.6      5  1.333    773    877     21    923   1650   1762   1266     1.6  0.012    112      8  0.000  0.000  0.000  0.000  0.000  0.000  0.000    4.16  18.41   0.06      0    112  172.4   0.22   0.43    0.0   1.80     96    2.23    2.14    1.29    0.93    0.67    0.40    0.18    0.07    0.02      411     421
 2016 361    88    79   28.8      5  1.348    781    887     13    930   1667   1667   1417     0.9  0.008      0      8  0.000  0.000  0.000  0.000  0.000  0.000  0.000    4.16   0.00   0.00      0      0  172.7   0.22   0.44    0.0   1.80     97    2.24    2.15    1.30    0.94    0.68    0.40    0.19    0.07    0.02      426     434
 2016 362    89    80   29.0      5  1.364    789    897     17    937   1686   1723   1193     1.5  0.010     37      6  0.000  0.000  0.000  0.000  0.000  0.000  0.000    4.16  47.20   0.02      0     37  172.9   0.22   0.44    0.0   1.80     98    2.26    2.16    1.31    0.94    0.68    0.41    0.19    0.07    0.02      440     446
 2016 363    90    81   29.2      5  1.378    797    907     22    945   1704   1782   1418     1.6  0.012     78      8  0.000  0.000  0.000  0.000  0.000  0.000  0.000    4.16  28.30   0.04      0     78  172.9   0.22   0.44    0.0   1.80     99    2.27    2.18    1.32    0.95    0.69    0.41    0.19    0.08    0.03      456     458
 2016 364    91    82   29.4      5  1.392    806    919     12    953   1725   1725   1614     0.7  0.007      0      9  0.000  0.000  0.000  0.000  0.000  0.000  0.000    4.16   0.00   0.00      0      0  172.7   0.22   0.45    0.0   1.80     99    2.28    2.19    1.33    0.96    0.69    0.42    0.19    0.08    0.03      471     470
 2016 365    92    83   29.5      5  1.416    830    942     13    978   1772   1783   1208     1.1  0.007     11      7  0.000  0.000  0.000  0.000  0.000  0.000  0.000    4.19  99.99   0.01      0     11  170.6   0.22   0.45    0.0   1.80    102    2.33    2.24    1.36    0.98    0.71    0.43    0.20    0.08    0.03      477     476
 2016 366    93    84   29.6      5  1.441    852    965     15   1001   1817   1848   1208     1.3  0.008     31      7  0.000  0.000  0.000  0.000  0.000  0.000  0.000    4.19  49.67   0.02      0     31  169.2   0.22   0.45    0.0   1.80    104    2.37    2.28    1.38    1.00    0.73    0.44    0.21    0.08    0.03      483     484
 2017 001    94    85   29.8      5  1.456    862    978     20   1011   1840   1908   1311     1.5  0.010     68      7  0.000  0.000  0.000  0.000  0.000  0.000  0.000    4.18  29.01   0.04      0     68  168.8   0.22   0.45    0.0   1.80    105    2.39    2.30    1.40    1.01    0.73    0.44    0.21    0.09    0.03      497     496
 2017 002    95    86   30.1      5  1.470    870    989     13   1019   1859   1859   1410     0.9  0.007      0      8  0.000  0.000  0.000  0.000  0.000  0.000  0.000    4.17   0.00   0.00      0      0  168.9   0.22   0.45    0.0   1.80    106    2.41    2.32    1.41    1.02    0.74    0.45    0.21    0.09    0.03      512     509
 2017 003    96    87   30.3      5  1.483    876    997     17   1023   1872   1912   1187     1.5  0.009     40      6  0.000  0.000  0.000  0.000  0.000  0.000  0.000    4.17  43.71   0.02      0     40  169.4   0.22   0.46    0.0   1.80    107    2.41    2.32    1.41    1.02    0.74    0.45    0.21    0.09    0.03      529     523
 2017 004    97    88   30.5      5  1.498    887   1010     21   1033   1897   1974   1383     1.5  0.011     77      7  0.000  0.000  0.000  0.000  0.000  0.000  0.000    4.18  27.75   0.04      0     77  168.9   0.23   0.46    0.0   1.80    108    2.43    2.34    1.43    1.03    0.75    0.45    0.22    0.09    0.04      544     535
 2017 005    98    89   30.7      5  1.511    897   1023     11   1043   1920   1920   1784     0.6  0.006      0     10  0.000  0.000  0.000  0.000  0.000  0.000  0.000    4.18   0.00   0.00      0      0  168.4   0.23   0.46    0.0   1.80    109    2.45    2.36    1.44    1.04    0.76    0.46    0.22    0.09    0.04      562     547
 2017 006    99    90   30.9      5  1.532    914   1041     15   1060   1955   1991   1279     1.2  0.007     35      7  0.000  0.000  0.000  0.000  0.000  0.000  0.000    4.19  42.20   0.02      0     35  167.6   0.23   0.46    0.0   1.80    110    2.48    2.39    1.46    1.06    0.77    0.47    0.22    0.10    0.04      573     559
 2017 007   100    91   31.0      5  1.528    911   1040     17   1055   1952   2010   1493     1.2  0.009     58      8  0.000  0.000  0.000  0.000  0.000  0.000  0.000    4.18  29.79   0.03      0     58  167.7   0.23   0.47    0.0   1.80    110    2.46    2.38    1.45    1.06    0.77    0.46    0.22    0.10    0.04      582     567
 2017 008   101    92   31.0      5  1.551    935   1063     18   1079   1998   2063   1493     1.2  0.009     65      8  0.000  0.000  0.000  0.000  0.000  0.000  0.000    4.21  27.87   0.03      0     65  165.8   0.23   0.47    0.0   1.80    112    2.51    2.43    1.48    1.08    0.78    0.47    0.23    0.10    0.04      585     571
 2017 009   102    93   31.2      5  1.576    960   1088     12   1104   2048   2048   1664     0.7  0.006      0      9  0.000  0.000  0.000  0.000  0.000  0.000  0.000    4.21   0.00   0.00      0      0  164.3   0.23   0.47    0.0   1.80    115    2.56    2.48    1.51    1.10    0.80    0.49    0.24    0.10    0.04      594     579
 2017 010   103    94   31.3      5  1.598    978   1108     15   1123   2086   2115   1352     1.1  0.007     28      7  0.000  0.000  0.000  0.000  0.000  0.000  0.000    4.21  52.81   0.01      0     28  163.4   0.23   0.47    0.0   1.80    117    2.59    2.51    1.54    1.12    0.81    0.50    0.24    0.11    0.04      603     589
 2017 011   104    95   31.5      5  1.614    990   1123     19   1134   2114   2182   1557     1.2  0.009     69      8  0.000  0.000  0.000  0.000  0.000  0.000  0.000    4.20  28.15   0.03      0     69  162.9   0.23   0.47    0.0   1.80    118    2.62    2.54    1.55    1.13    0.82    0.50    0.24    0.11    0.05      619     602
 2017 012   105    96   31.8      5  1.628   1003   1138     16   1146   2141   2141   1832     0.9  0.007      0     10  0.000  0.000  0.000  0.000  0.000  0.000  0.000    4.21   0.00   0.00      0      0  162.4   0.23   0.47    0.0   1.80    119    2.64    2.56    1.57    1.14    0.83    0.51    0.25    0.11    0.05      637     616
 2017 013   106    97   32.0      5  1.627   1000   1139     22   1141   2139   2196   1800     1.2  0.010     58     10  0.000  0.000  0.000  0.000  0.000  0.000  0.000    4.19  37.65   0.03      0     58  162.7   0.23   0.47    0.0   1.80    119    2.63    2.55    1.56    1.14    0.83    0.51    0.25    0.11    0.05      660     631
 2017 014   107    98   32.2      5  1.623    996   1139     29   1136   2136   2259   2177     1.3  0.013    123     12  0.000  0.000  0.000  0.000  0.000  0.000  0.000    4.19  23.49   0.05      0    123  162.9   0.23   0.48    0.0   1.80    119    2.61    2.54    1.56    1.13    0.83    0.50    0.25    0.11    0.05      682     646
 2017 015   108    99   32.4      5  1.618    993   1139     37   1130   2132   2327   2290     1.6  0.016    195     13  0.000  0.000  0.000  0.000  0.000  0.000  0.000    4.19  19.24   0.08      0    195  163.0   0.23   0.48    0.0   1.80    118    2.60    2.53    1.55    1.13    0.82    0.50    0.25    0.11    0.05      698     661
 2017 016   109   100   32.6      5  1.611    988   1138     20   1123   2126   2126   2796     0.7  0.009      0     15  0.000  0.000  0.000  0.000  0.000  0.000  0.000    4.18   0.00   0.00      0      0  163.1   0.23   0.48    0.0   1.80    117    2.59    2.51    1.54    1.12    0.82    0.50    0.25    0.11    0.05      717     675
 2017 017   110   101   32.7      5  1.613    989   1143     27   1123   2132   2203   2379     1.2  0.012     71     13  0.000  0.000  0.000  0.000  0.000  0.000  0.000    4.18  38.48   0.03      0     71  163.1   0.23   0.48    0.0   1.80    117    2.58    2.51    1.54    1.12    0.82    0.50    0.25    0.11    0.05      735     690
 2017 018   111   102   32.9      5  1.615    992   1148     36   1124   2140   2287   2719     1.3  0.016    147     15  0.000  0.000  0.000  0.000  0.000  0.000  0.000    4.18  24.52   0.06      0    147  162.8   0.23   0.49    0.0   1.80    118    2.58    2.51    1.54    1.12    0.82    0.50    0.25    0.11    0.05      751     703
 2017 019   112   103   33.0      5  1.621    998   1157     26   1128   2155   2155   2719     0.9  0.012      0     15  0.000  0.000  0.000  0.000  0.000  0.000  0.000    4.19   0.00   0.00      0      0  162.4   0.23   0.49    0.0   1.80    118    2.59    2.52    1.55    1.13    0.82    0.50    0.25    0.11    0.05      764     716
 2017 020   113   104   33.1      5  1.620    998   1161     34   1127   2159   2232   2402     1.4  0.015     73     13  0.000  0.000  0.000  0.000  0.000  0.000  0.000    4.18  45.94   0.03      0     73  162.3   0.23   0.49    0.0   1.80    118    2.58    2.51    1.55    1.13    0.82    0.50    0.25    0.11    0.05      781     730
 2017 021   114   105   33.3      5  1.619    998   1164     43   1125   2162   2320   2743     1.6  0.019    158     15  0.000  0.000  0.000  0.000  0.000  0.000  0.000    4.18  27.16   0.07      0    158  162.3   0.23   0.49    0.0   1.80    118    2.58    2.51    1.54    1.12    0.82    0.50    0.25    0.11    0.05      800     745
 2017 022   115   106   33.4      5  1.598    985   1156     54   1107   2141   2364   3055     1.8  0.023    223     17  0.000  0.000  0.000  0.000  0.000  0.000  0.000    4.17  24.40   0.09      0    223  162.3   0.23   0.49    0.0   1.80    116    2.54    2.47    1.52    1.11    0.81    0.50    0.25    0.11    0.05      817     760
 2017 023   116   107   33.5      5  1.585    976   1151     24   1097   2127   2127   3423     0.7  0.011      0     21  0.000  0.000  0.000  0.000  0.000  0.000  0.000    4.17   0.00   0.00      0      0  162.4   0.23   0.49    0.0   1.80    115    2.52    2.45    1.51    1.10    0.80    0.49    0.24    0.11    0.05      836     775
 2017 024   117   108   33.6      5  1.600    991   1168     30   1110   2159   2223   2537     1.2  0.014     64     16  0.000  0.000  0.000  0.000  0.000  0.000  0.000    4.18  47.59   0.03      0     64  161.4   0.23   0.50    0.0   1.80    116    2.54    2.47    1.52    1.11    0.81    0.50    0.25    0.11    0.05      852     786
 2017 025   118   109   33.7      5  1.611   1003   1182     38   1120   2185   2317   2959     1.3  0.016    132     16  0.000  0.000  0.000  0.000  0.000  0.000  0.000    4.19  28.82   0.06      0    132  160.7   0.23   0.50    0.0   1.80    117    2.56    2.49    1.54    1.12    0.82    0.50    0.25    0.12    0.05      867     799
 2017 026   119   110   33.8      5  1.590    989   1173     27   1104   2163   2163   3356     0.8  0.012      0     18  0.000  0.000  0.000  0.000  0.000  0.000  0.000    4.17   0.00   0.00      0      0  160.7   0.23   0.50    0.0   1.80    116    2.52    2.46    1.52    1.10    0.81    0.50    0.25    0.11    0.05      886     814
 2017 027   120   111   33.9      5  1.584    986   1173     35   1099   2159   2241   3023     1.2  0.016     83     16  0.000  0.000  0.000  0.000  0.000  0.000  0.000    4.17  42.83   0.04      0     83  160.7   0.24   0.50    0.0   1.80    115    2.51    2.45    1.51    1.10    0.80    0.49    0.25    0.11    0.05      902     827
 2017 028   121   112   34.0      5  1.593    997   1185     40   1108   2182   2305   3253     1.2  0.017    123     18  0.000  0.000  0.000  0.000  0.000  0.000  0.000    4.18  32.52   0.05      0    123  159.8   0.24   0.50    0.0   1.80    116    2.53    2.46    1.52    1.11    0.81    0.50    0.25    0.12    0.05      909     835
 2017 029   122   113   34.0      5  1.595   1000   1189     44   1108   2189   2347   3253     1.4  0.019    157     18  0.000  0.000  0.000  0.000  0.000  0.000  0.000    4.19  28.11   0.07      0    157  159.5   0.24   0.50    0.0   1.80    116    2.53    2.46    1.52    1.11    0.81    0.50    0.25    0.12    0.05      915     843
 2017 030   123   114   34.1      5  1.618   1027   1217     24   1134   2244   2244   3686     0.6  0.011      0     20  0.000  0.000  0.000  0.000  0.000  0.000  0.000    4.20   0.00   0.00      0      0  157.6   0.24   0.50    0.0   1.80    119    2.58    2.51    1.55    1.13    0.83    0.51    0.25    0.12    0.05      925     851
 2017 031   124   115   34.2      5  1.640   1050   1242     29   1156   2292   2338   3196     0.9  0.012     46     17  0.000  0.000  0.000  0.000  0.000  0.000  0.000    4.21  63.16   0.02      0     46  156.2   0.24   0.50    0.0   1.80    121    2.62    2.55    1.58    1.15    0.84    0.52    0.26    0.12    0.06      938     860
 2017 032   125   116   34.3      5  1.660   1070   1264     36   1174   2334   2440   3196     1.1  0.015    106     17  0.000  0.000  0.000  0.000  0.000  0.000  0.000    4.22  34.09   0.04      0    106  155.1   0.24   0.50    0.0   1.80    123    2.65    2.59    1.60    1.17    0.86    0.53    0.27    0.13    0.06      947     871
 2017 033   126   117   34.4      5  1.661   1073   1270     28   1175   2342   2342   3617     0.8  0.012      0     20  0.000  0.000  0.000  0.000  0.000  0.000  0.000    4.21   0.00   0.00      0      0  154.8   0.24   0.50    0.0   1.80    123    2.65    2.59    1.60    1.17    0.86    0.53    0.27    0.13    0.06      966     884
 2017 034   127   118   34.6      5  1.664   1078   1278     38   1178   2356   2445   3141     1.2  0.015     89     17  0.000  0.000  0.000  0.000  0.000  0.000  0.000    4.21  42.37   0.04      0     89  154.4   0.24   0.50    0.0   1.80    123    2.66    2.59    1.61    1.17    0.86    0.53    0.27    0.13    0.06      985     898
 2017 035   128   119   34.7      5  1.659   1075   1279     49   1173   2355   2547   3739     1.3  0.019    192     20  0.000  0.000  0.000  0.000  0.000  0.000  0.000    4.21  25.57   0.08      0    192  154.3   0.24   0.51    0.0   1.80    123    2.65    2.58    1.60    1.17    0.86    0.53    0.27    0.13    0.06     1010     913
 2017 036   129   120   34.8      5  1.649   1069   1277     63   1165   2345   2647   4214     1.5  0.024    302     23  0.000  0.000  0.000  0.000  0.000  0.000  0.000    4.21  20.85   0.11      0    302  154.3   0.24   0.51    0.0   1.80    122    2.63    2.57    1.59    1.16    0.85    0.52    0.26    0.13    0.06     1031     927
 2017 037   130   121   34.9      5  1.645   1068   1279     35   1162   2346   2346   4563     0.8  0.015      0     25  0.000  0.000  0.000  0.000  0.000  0.000  0.000    4.20   0.00   0.00      0      0  154.1   0.24   0.51    0.0   1.80    122    2.62    2.56    1.59    1.16    0.85    0.52    0.26    0.13    0.06     1048     941
 2017 038   131   122   35.0      5  1.634   1060   1275     47   1153   2335   2446   3485     1.3  0.019    111     19  0.000  0.000  0.000  0.000  0.000  0.000  0.000    4.20  42.36   0.05      0    111  154.2   0.24   0.51    0.0   1.80    121    2.60    2.54    1.57    1.15    0.84    0.52    0.26    0.13    0.06     1068     956
 2017 039   132   123   35.1      5  1.616   1047   1267     61   1138   2313   2544   4013     1.5  0.024    231     22  0.000  0.000  0.000  0.000  0.000  0.000  0.000    4.19  26.52   0.09      0    231  154.3   0.24   0.51    0.0   1.80    120    2.57    2.51    1.56    1.14    0.83    0.51    0.26    0.12    0.06     1089     971
 2017 040   133   124   35.2      5  1.599   1035   1259     35   1124   2294   2294   4567     0.8  0.015      0     28  0.000  0.000  0.000  0.000  0.000  0.000  0.000    4.18   0.00   0.00      0      0  154.5   0.24   0.51    0.0   1.80    118    2.54    2.48    1.54    1.12    0.82    0.51    0.26    0.12    0.06     1109     986
 2017 041   134   125   35.3      5  1.612   1050   1277     44   1137   2327   2402   3777     1.2  0.018     75     20  0.000  0.000  0.000  0.000  0.000  0.000  0.000    4.18  58.56   0.03      0     75  153.5   0.24   0.51    0.0   1.80    120    2.56    2.51    1.55    1.14    0.83    0.51    0.26    0.13    0.06     1126     998
 2017 042   135   126   35.4      5  1.616   1056   1286     55   1141   2342   2517   4291     1.3  0.022    175     23  0.000  0.000  0.000  0.000  0.000  0.000  0.000    4.18  31.69   0.07      0    175  152.9   0.24   0.51    0.0   1.80    120    2.57    2.52    1.56    1.14    0.84    0.52    0.26    0.13    0.06     1143    1010
 2017 043   136   127   35.4      5  1.610   1055   1288     70   1138   2342   2639   4779     1.5  0.026    297     26  0.000  0.000  0.000  0.000  0.000  0.000  0.000    4.17  23.45   0.11      0    297  152.7   0.24   0.51    0.0   1.80    120    2.56    2.51    1.56    1.14    0.83    0.51    0.26    0.13    0.06     1160    1023
 2017 044   137   128   35.5      5  1.593   1043   1280     44   1124   2322   2322   5209     0.8  0.019      0     28  0.000  0.000  0.000  0.000  0.000  0.000  0.000    4.16   0.00   0.00      0      0  152.8   0.24   0.52    0.0   1.80    118    2.53    2.48    1.54    1.13    0.82    0.51    0.26    0.12    0.06     1178    1037
 2017 045   138   129   35.6      5  1.576   1030   1271     60   1110   2301   2420   4263     1.4  0.025    118     23  0.000  0.000  0.000  0.000  0.000  0.000  0.000    4.14  50.44   0.05      0    118  153.0   0.24   0.52    0.0   1.80    117    2.51    2.45    1.52    1.11    0.81    0.50    0.26    0.12    0.06     1197    1052
 2017 046   139   130   35.7      5  1.558   1017   1263     78   1095   2280   2515   4765     1.6  0.031    235     26  0.000  0.000  0.000  0.000  0.000  0.000  0.000    4.13  33.02   0.09      0    235  153.2   0.24   0.52    0.0   1.80    116    2.47    2.42    1.50    1.10    0.80    0.50    0.25    0.12    0.06     1214    1068
 2017 047   140   131   35.7      5  1.570   1033   1281     36   1108   2313   2313   5292     0.7  0.016      0     29  0.000  0.000  0.000  0.000  0.000  0.000  0.000    4.13   0.00   0.00      0      0  152.1   0.24   0.52    0.0   1.80    117    2.50    2.45    1.52    1.11    0.81    0.50    0.26    0.12    0.06     1226    1078
 2017 048   141   132   35.8      5  1.587   1052   1303     43   1125   2355   2419   3927     1.1  0.018     64     21  0.000  0.000  0.000  0.000  0.000  0.000  0.000    4.13  67.69   0.03      0     64  150.8   0.24   0.52    0.0   1.80    119    2.53    2.48    1.54    1.13    0.83    0.51    0.26    0.13    0.06     1237    1087
 2017 049   142   133   35.8      5  1.573   1042   1296     55   1113   2338   2495   4434     1.2  0.022    157     24  0.000  0.000  0.000  0.000  0.000  0.000  0.000    4.12  35.22   0.06      0    157  151.0   0.24   0.52    0.0   1.80    117    2.51    2.45    1.52    1.12    0.82    0.51    0.26    0.13    0.06     1253    1099
 2017 050   143   134   35.9      5  1.556   1030   1288     73   1099   2318   2608   4870     1.5  0.028    290     26  0.000  0.000  0.000  0.000  0.000  0.000  0.000    4.10  25.16   0.11      0    290  151.1   0.24   0.52    0.0   1.80    116    2.48    2.43    1.51    1.10    0.81    0.50    0.26    0.12    0.06     1271    1114
 2017 051   144   135   36.0      5  1.546   1023   1285     43   1091   2309   2309   5259     0.8  0.019      0     28  0.000  0.000  0.000  0.000  0.000  0.000  0.000    4.09   0.00   0.00      0      0  151.0   0.24   0.52    0.0   1.80    115    2.46    2.41    1.50    1.10    0.80    0.50    0.25    0.12    0.06     1288    1127
 2017 052   145   136   36.1      5  1.529   1011   1277     58   1077   2288   2393   4069     1.4  0.024    105     22  0.000  0.000  0.000  0.000  0.000  0.000  0.000    4.08  55.49   0.04      0    105  151.2   0.24   0.52    0.0   1.80    114    2.43    2.38    1.48    1.08    0.79    0.49    0.25    0.12    0.06     1304    1142
 2017 053   146   137   36.1      5  1.512    999   1269     73   1063   2267   2438   4517     1.6  0.030    171     27  0.000  0.000  0.000  0.000  0.000  0.000  0.000    4.06  42.85   0.07      0    171  151.4   0.24   0.52    0.0   1.80    113    2.40    2.35    1.46    1.07    0.78    0.49    0.25    0.12    0.06     1319    1155
 2017 054   147   138   36.2      5  1.497    988   1262     46   1051   2250   2250   5021     0.9  0.020      0     27  0.000  0.000  0.000  0.000  0.000  0.000  0.000    4.05   0.00   0.00      0      0  151.5   0.24   0.52    0.0   1.80    111    2.38    2.33    1.45    1.06    0.78    0.48    0.25    0.12    0.06     1334    1168
 2017 055   148   139   36.2      5  1.485    980   1257     59   1040   2237   2365   3646     1.6  0.025    128     23  0.000  0.000  0.000  0.000  0.000  0.000  0.000    4.04  46.24   0.05      0    128  151.6   0.24   0.52    0.0   1.80    110    2.35    2.30    1.43    1.05    0.77    0.48    0.24    0.12    0.06     1348    1182
 2017 056   149   140   36.2      5  1.470    969   1250     74   1027   2219   2480   4588     1.6  0.030    261     25  0.000  0.000  0.000  0.000  0.000  0.000  0.000    4.02  28.41   0.11      0    261  151.7   0.24   0.52    0.0   1.80    109    2.32    2.28    1.42    1.04    0.76    0.47    0.24    0.12    0.06     1371    1197
 2017 057   150   141   36.3      5  1.467    969   1255     91   1025   2224   2613   4588     2.0  0.035    389     27  0.000  0.000  0.000  0.000  0.000  0.000  0.000    4.01  23.43   0.15      0    389  151.3   0.24   0.52    0.0   1.80    109    2.32    2.27    1.41    1.03    0.76    0.47    0.24    0.12    0.06     1383    1209
 2017 058   151   142   36.3      5  1.460    965   1254     28   1019   2219   2219   4948     0.6  0.013      0     27  0.000  0.000  0.000  0.000  0.000  0.000  0.000    4.00   0.00   0.00      0      0  151.3   0.24   0.52    0.0   1.80    108    2.31    2.26    1.40    1.03    0.75    0.47    0.24    0.12    0.06     1401    1222
 2017 059   152   143   36.4      5  1.462    967   1261     38   1019   2228   2313   2862     1.3  0.016     85     15  0.000  0.000  0.000  0.000  0.000  0.000  0.000    3.99  44.43   0.04      0     85  151.2   0.24   0.53    0.0   1.80    108    2.30    2.26    1.40    1.03    0.75    0.47    0.24    0.12    0.06     1417    1235
[...]
 2015 029   121   112   31.4      5  1.657   1143   1284     62   1216   2427   2697   4478     1.4  0.023    271     25  0.000  0.000  0.000  0.000  0.000  0.000  0.000    4.22  22.86   0.10      0    271  145.0   0.23   0.48    0.0   1.80    127    2.78    2.71    1.67    1.21    0.89    0.54    0.26    0.12    0.05      800     772
 2015 030   122   113   31.5      5  1.673   1159   1301     70   1229   2460   2792   4742     1.5  0.025    333     26  0.000  0.000  0.000  0.000  0.000  0.000  0.000    4.21  20.98   0.12      0    333  144.4   0.23   0.48    0.0   1.80    128    2.81    2.74    1.69    1.23    0.90    0.54    0.27    0.13    0.05      814     783
 2015 031   123   114   31.7      5  1.685   1171   1315     79   1240   2486   2895   5365     1.5  0.027    409     30  0.000  0.000  0.000  0.000  0.000  0.000  0.000    4.21  19.30   0.14      0    409  143.9   0.24   0.48    0.0   1.80    129    2.83    2.76    1.70    1.24    0.90    0.55    0.27    0.13    0.05      834     794
 2015 032   124   115   31.8      5  1.694   1181   1328     92   1248   2509   3005   5530     1.7  0.031    496     31  0.000  0.000  0.000  0.000  0.000  0.000  0.000    4.20  18.63   0.16      0    496  143.4   0.24   0.48    0.0   1.80    130    2.85    2.78    1.71    1.25    0.91    0.55    0.27    0.13    0.05      849     807
 2015 033   125   116   31.9      5  1.683   1172   1322     65   1237   2494   2494   5985     1.1  0.026      0     33  0.000  0.000  0.000  0.000  0.000  0.000  0.000    4.19   0.00   0.00      0      0  143.6   0.24   0.48    0.0   1.80    129    2.82    2.75    1.70    1.24    0.90    0.55    0.27    0.13    0.05      866     821
 2015 034   126   117   32.0      5  1.700   1191   1342     72   1254   2533   2590   5184     1.4  0.028     57     29  0.000  0.000  0.000  0.000  0.000  0.000  0.000    4.19  99.99   0.02      0     57  142.7   0.24   0.48    0.0   1.80    131    2.86    2.79    1.72    1.25    0.92    0.56    0.27    0.13    0.06      878     830
 2015 035   127   118   32.2      5  1.689   1183   1337     87   1244   2520   2689   5632     1.6  0.032    169     31  0.000  0.000  0.000  0.000  0.000  0.000  0.000    4.18  51.65   0.06      0    169  142.8   0.24   0.48    0.0   1.80    130    2.84    2.77    1.71    1.24    0.91    0.55    0.27    0.13    0.06      897     845
 2015 036   128   119   32.3      5  1.672   1170   1329     61   1230   2499   2499   6571     0.9  0.024      0     37  0.000  0.000  0.000  0.000  0.000  0.000  0.000    4.17   0.00   0.00      0      0  142.9   0.24   0.49    0.0   1.80    129    2.81    2.74    1.69    1.23    0.90    0.55    0.27    0.13    0.05      912     858
 2015 037   129   120   32.3      5  1.685   1186   1346     71   1244   2532   2608   5236     1.3  0.027     76     29  0.000  0.000  0.000  0.000  0.000  0.000  0.000    4.16  92.53   0.03      0     76  142.1   0.24   0.49    0.0   1.80    130    2.83    2.77    1.71    1.24    0.91    0.55    0.27    0.13    0.06      923     869
 2015 038   130   121   32.3      5  1.697   1199   1362     82   1255   2561   2728   5836     1.4  0.030    167     32  0.000  0.000  0.000  0.000  0.000  0.000  0.000    4.16  49.03   0.06      0    167  141.5   0.24   0.49    0.0   1.80    132    2.85    2.79    1.72    1.26    0.92    0.56    0.28    0.13    0.06      938     881
 2015 039   131   122   32.3      5  1.701   1204   1370     95   1258   2574   2848   6154     1.6  0.034    274     34  0.000  0.000  0.000  0.000  0.000  0.000  0.000    4.15  34.84   0.10      0    274  141.2   0.24   0.49    0.0   1.80    132    2.86    2.79    1.73    1.26    0.92    0.56    0.28    0.14    0.06      953     894
 2015 040   132   123   32.3      5  1.681   1191   1361     69   1242   2552   2552   7523     0.9  0.027      0     42  0.000  0.000  0.000  0.000  0.000  0.000  0.000    4.14   0.00   0.00      0      0  141.2   0.24   0.49    0.0   1.80    130    2.83    2.76    1.71    1.24    0.91    0.55    0.28    0.13    0.06      970     908
 2015 041   133   124   32.3      5  1.688   1201   1373     80   1250   2574   2665   6168     1.3  0.030     91     34  0.000  0.000  0.000  0.000  0.000  0.000  0.000    4.13  87.82   0.03      0     91  140.6   0.24   0.49    0.0   1.80    131    2.84    2.78    1.72    1.25    0.92    0.56    0.28    0.14    0.06      980     919
 2015 042   134   125   32.3      5  1.699   1215   1389     91   1262   2604   2794   6831     1.3  0.033    190     38  0.000  0.000  0.000  0.000  0.000  0.000  0.000    4.13  48.07   0.07      0    190  139.9   0.24   0.49    0.0   1.80    132    2.86    2.80    1.73    1.26    0.92    0.56    0.28    0.14    0.06      994     930
 2015 043   135   126   32.3      5  1.715   1233   1409     78   1278   2643   2643   7083     1.1  0.030      0     39  0.000  0.000  0.000  0.000  0.000  0.000  0.000    4.13   0.00   0.00      0      0  139.0   0.24   0.49    0.0   1.80    134    2.89    2.83    1.76    1.28    0.94    0.57    0.29    0.14    0.06     1005     940
 2015 044   136   127   32.3      5  1.739   1266   1442     84   1307   2708   2755   6341     1.3  0.031     47     35  0.000  0.000  0.000  0.000  0.000  0.000  0.000    4.13  99.99   0.02      0     47  137.3   0.24   0.49    0.0   1.80    137    2.95    2.89    1.79    1.31    0.96    0.59    0.29    0.14    0.06     1010     947
 2015 045   137   128   32.3      5  1.759   1292   1469     92   1331   2761   2866   6749     1.4  0.032    105     37  0.000  0.000  0.000  0.000  0.000  0.000  0.000    4.13  87.63   0.04      0    105  136.1   0.24   0.49    0.0   1.80    139    3.00    2.94    1.82    1.33    0.97    0.60    0.30    0.15    0.07     1023     955
 2015 046   138   129   32.3      5  1.768   1303   1482    105   1339   2785   2989   7155     1.5  0.035    203     40  0.000  0.000  0.000  0.000  0.000  0.000  0.000    4.12  51.68   0.07      0    203  135.7   0.24   0.50    0.0   1.80    140    3.01    2.95    1.83    1.34    0.98    0.60    0.30    0.15    0.07     1042     968
 2015 047   139   130   32.3      5  1.761   1297   1479     84   1331   2777   2777   7698     1.1  0.030      0     43  0.000  0.000  0.000  0.000  0.000  0.000  0.000    4.12   0.00   0.00      0      0  135.7   0.24   0.50    0.0   1.80    140    3.00    2.94    1.82    1.33    0.97    0.60    0.30    0.15    0.07     1066     982
 2015 048   140   131   32.3      5  1.743   1283   1470    105   1315   2753   2877   7339     1.4  0.036    124     41  0.000  0.000  0.000  0.000  0.000  0.000  0.000    4.10  84.30   0.04      0    124  135.9   0.24   0.50    0.0   1.80    138    2.97    2.90    1.80    1.32    0.96    0.59    0.30    0.15    0.07     1084     998
 2015 049   141   132   32.3      5  1.761   1309   1497    114   1338   2806   3000   7339     1.6  0.038    194     41  0.000  0.000  0.000  0.000  0.000  0.000  0.000    4.10  59.02   0.06      0    194  134.5   0.24   0.50    0.0   1.80    140    3.01    2.95    1.83    1.34    0.98    0.60    0.30    0.15    0.07     1093    1008
 2015 050   142   133   32.3      5  1.792   1350   1537     88   1375   2887   2887   7339     1.2  0.030      0     41  0.000  0.000  0.000  0.000  0.000  0.000  0.000    4.11   0.00   0.00      0      0  132.7   0.24   0.50    0.0   1.80    144    3.08    3.02    1.88    1.37    1.01    0.62    0.31    0.16    0.07     1095    1013
 2015 051   143   134   32.3      5  1.811   1377   1563     93   1399   2940   2978   6809     1.4  0.031     38     38  0.000  0.000  0.000  0.000  0.000  0.000  0.000    4.11  99.99   0.01      0     38  131.5   0.24   0.50    0.0   1.80    147    3.13    3.07    1.91    1.40    1.02    0.63    0.32    0.16    0.07     1103    1018
 2015 052   144   135   32.3      5  1.823   1390   1578    105   1409   2968   3099   6809     1.5  0.034    131     38  0.000  0.000  0.000  0.000  0.000  0.000  0.000    4.11  79.88   0.04      0    131  131.2   0.24   0.50    0.0   1.80    148    3.15    3.09    1.92    1.40    1.03    0.63    0.32    0.16    0.07     1114    1030
 2015 053   145   136   32.3      5  1.806   1375   1568    127   1392   2943   3206   7714     1.6  0.040    263     43  0.000  0.000  0.000  0.000  0.000  0.000  0.000    4.10  48.36   0.08      0    263  131.3   0.24   0.50    0.0   1.80    146    3.12    3.06    1.90    1.39    1.02    0.63    0.32    0.16    0.07     1148    1048
 2015 054   146   137   32.3      5  1.787   1359   1557     93   1375   2916   2916   8231     1.1  0.032      0     46  0.000  0.000  0.000  0.000  0.000  0.000  0.000    4.08   0.00   0.00      0      0  131.5   0.24   0.50    0.0   1.80    145    3.08    3.02    1.88    1.37    1.01    0.62    0.31    0.16    0.07     1170    1066
 2015 055   147   138   32.3      5  1.767   1342   1545    116   1357   2887   3023   6374     1.8  0.038    136     35  0.000  0.000  0.000  0.000  0.000  0.000  0.000    4.07  85.13   0.05      0    136  131.7   0.24   0.50    0.0   1.80    143    3.04    2.99    1.86    1.36    1.00    0.61    0.31    0.16    0.07     1192    1085
 2015 056   148   139   32.3      5  1.748   1325   1534    138   1338   2859   3094   6374     2.2  0.045    236     35  0.000  0.000  0.000  0.000  0.000  0.000  0.000    4.06  58.63   0.08      0    236  131.9   0.24   0.50    0.0   1.80    141    3.01    2.95    1.84    1.34    0.98    0.61    0.31    0.15    0.07     1212    1103
 2015 057   149   140   32.3      5  1.730   1310   1523     78   1322   2833   2833   6374     1.2  0.028      0     35  0.000  0.000  0.000  0.000  0.000  0.000  0.000    4.04   0.00   0.00      0      0  132.1   0.24   0.50    0.0   1.80    140    2.97    2.92    1.82    1.33    0.97    0.60    0.30    0.15    0.07     1230    1119
 2015 058   150   141   32.3      5  1.719   1301   1518     88   1312   2818   2878   4611     1.9  0.031     60     26  0.000  0.000  0.000  0.000  0.000  0.000  0.000    4.04  99.99   0.02      0     60  132.2   0.24   0.50    0.0   1.80    139    2.95    2.90    1.80    1.32    0.97    0.59    0.30    0.15    0.07     1244    1132
 2015 059   151   142   32.3      5  1.704   1289   1511    102   1297   2800   2889   5118     2.0  0.035     89     28  0.000  0.000  0.000  0.000  0.000  0.000  0.000    4.02  99.99   0.03      0     89  132.2   0.24   0.50    0.0   1.80    137    2.92    2.87    1.78    1.30    0.96    0.59    0.30    0.15    0.07     1257    1146
 2015 060   152   143   32.3      5  1.696   1281   1508    119   1286   2789   2971   5476     2.2  0.040    182     30  0.000  0.000  0.000  0.000  0.000  0.000  0.000    4.01  65.05   0.06      0    182  132.4   0.24   0.50    0.0   1.80    136    2.90    2.84    1.77    1.29    0.95    0.58    0.30    0.15    0.07     1278    1164
 2015 061   153   144   32.3      5  1.702   1282   1513     55   1284   2796   2796   5621     1.0  0.020      0     31  0.000  0.000  0.000  0.000  0.000  0.000  0.000    4.00   0.00   0.00      0      0  132.8   0.24   0.50    0.0   1.80    136    2.89    2.84    1.77    1.29    0.95    0.58    0.30    0.15    0.07     1298    1182
 2015 062   154   145   32.3      5  1.715   1290   1526     67   1289   2817   2891   3780     1.8  0.023     74     21  0.000  0.000  0.000  0.000  0.000  0.000  0.000    3.99  91.21   0.03      0     74  132.9   0.24   0.50    0.0   1.80    136    2.90    2.85    1.77    1.30    0.95    0.59    0.30    0.15    0.07     1320    1199
 2015 063   155   146   32.3      5  1.723   1297   1537     81   1292   2833   2996   4255     1.9  0.027    163     24  0.000  0.000  0.000  0.000  0.000  0.000  0.000    3.98  49.58   0.05      0    163  132.9   0.24   0.50    0.0   1.80    137    2.91    2.85    1.78    1.30    0.95    0.59    0.30    0.15    0.07     1343    1215
 2015 064   156   147   32.3      5  1.719   1291   1536     29   1284   2827   2827   4768     0.6  0.010      0     26  0.000  0.000  0.000  0.000  0.000  0.000  0.000    3.97   0.00   0.00      0      0  133.1   0.24   0.50    0.0   1.80    136    2.89    2.84    1.77    1.29    0.95    0.58    0.30    0.15    0.07     1367    1233
 2015 065   157   148   32.3      5  1.711   1284   1534     39   1275   2818   2930   3457     1.1  0.013    113     19  0.000  0.000  0.000  0.000  0.000  0.000  0.000    3.96  34.69   0.04      0    113  133.2   0.24   0.50    0.0   1.80    135    2.87    2.82    1.76    1.28    0.94    0.58    0.30    0.15    0.07     1388    1249
 2015 066   158   149   32.3      5  1.709   1283   1536     49   1271   2820   3033   4026     1.2  0.016    213     22  0.000  0.000  0.000  0.000  0.000  0.000  0.000    3.95  22.98   0.07      0    213  133.2   0.24   0.50    0.0   1.80    135    2.86    2.81    1.75    1.28    0.94    0.58    0.30    0.15    0.07     1405    1264
 2015 067   159   150   32.3      5  1.708   1282   1540     63   1268   2822   3159   4624     1.4  0.020    337     26  0.000  0.000  0.000  0.000  0.000  0.000  0.000    3.94  18.61   0.11      0    337  133.2   0.24   0.50    0.0   1.80    135    2.85    2.80    1.75    1.28    0.94    0.58    0.30    0.15    0.07     1424    1280
 2015 068   160   151   32.3      5  1.700   1276   1538     62   1259   2814   3038   5246     1.2  0.020    224     29  0.000  0.000  0.000  0.000  0.000  0.000  0.000    3.93  27.48   0.07      0    224  133.2   0.24   0.50    0.0   1.80    134    2.83    2.78    1.74    1.27    0.93    0.58    0.29    0.15    0.07     1445    1296
 2015 069   161   152   32.3      5  1.685   1263   1530     78   1244   2793   3164   5336     1.5  0.025    372     30  0.000  0.000  0.000  0.000  0.000  0.000  0.000    3.91  21.09   0.12      0    372  133.4   0.24   0.50    0.0   1.80    132    2.80    2.75    1.72    1.26    0.92    0.57    0.29    0.15    0.07     1469    1313
 2015 070   162   153   32.3      5  1.670   1250   1521     97   1229   2772   3270   5336     1.8  0.030    499     30  0.000  0.000  0.000  0.000  0.000  0.000  0.000    3.90  19.47   0.15      0    499  133.6   0.24   0.50    0.0   1.80    131    2.77    2.72    1.70    1.24    0.91    0.56    0.29    0.15    0.07     1486    1330
 2015 071   163   154   32.3      5  1.656   1239   1514     83   1214   2753   2947   5336     1.6  0.028    194     33  0.000  0.000  0.000  0.000  0.000  0.000  0.000    3.89  42.75   0.07      0    194  133.7   0.24   0.50    0.0   1.80    129    2.74    2.69    1.68    1.23    0.90    0.56    0.28    0.14    0.07     1502    1347
 2015 072   164   155   32.3      5  1.642   1226   1507     99   1199   2733   3064   5192     1.9  0.032    331     29  0.000  0.000  0.000  0.000  0.000  0.000  0.000    3.87  29.92   0.11      0    331  133.9   0.24   0.50    0.0   1.80    128    2.70    2.66    1.66    1.21    0.89    0.55    0.28    0.14    0.07     1536    1363
 2015 073   165   156   32.3      5  1.628   1215   1500    118   1185   2714   3191   5563     2.1  0.037    476     31  0.000  0.000  0.000  0.000  0.000  0.000  0.000    3.86  24.69   0.15      0    476  134.0   0.24   0.50    0.0   1.80    126    2.67    2.63    1.64    1.20    0.88    0.54    0.28    0.14    0.07     1557    1380
 2015 074   166   157   32.3      5  1.618   1206   1496    138   1174   2702   3322   6009     2.3  0.041    620     33  0.000  0.000  0.000  0.000  0.000  0.000  0.000    3.85  22.21   0.19      0    620  134.1   0.24   0.50    0.0   1.80    125    2.65    2.60    1.63    1.19    0.87    0.54    0.28    0.14    0.07     1580    1396
 2015 075   167   158   32.3      5  1.613   1203   1497     94   1167   2699   2699   6436     1.5  0.035      0     36  0.000  0.000  0.000  0.000  0.000  0.000  0.000    3.83   0.00   0.00      0      0  134.1   0.24   0.50    0.0   1.80    125    2.63    2.59    1.62    1.18    0.87    0.54    0.27    0.14    0.07     1600    1411
 2015 076   168   159   32.3      5  1.612   1202   1501    112   1164   2703   2837   5417     2.1  0.039    134     30  0.000  0.000  0.000  0.000  0.000  0.000  0.000    3.82  83.49   0.05      0    134  134.1   0.24   0.50    0.0   1.80    124    2.62    2.58    1.61    1.18    0.87    0.53    0.27    0.14    0.07     1622    1427
 2015 077   169   160   32.3      5  1.607   1198   1501    131   1156   2699   2963   5903     2.2  0.044    264     33  0.000  0.000  0.000  0.000  0.000  0.000  0.000    3.81  49.58   0.09      0    264  134.2   0.24   0.50    0.0   1.80    123    2.61    2.56    1.60    1.17    0.86    0.53    0.27    0.14    0.07     1643    1442
 2015 078   170   161   32.3      5  1.598   1190   1497     80   1145   2687   2687   6442     1.2  0.030      0     36  0.000  0.000  0.000  0.000  0.000  0.000  0.000    3.80   0.00   0.00      0      0  134.3   0.24   0.50    0.0   1.80    122    2.58    2.54    1.59    1.16    0.85    0.53    0.27    0.14    0.06     1667    1458
 2015 079   171   162   32.3      5  1.593   1186   1498     97   1138   2684   2824   5186     1.9  0.034    140     29  0.000  0.000  0.000  0.000  0.000  0.000  0.000    3.79  69.33   0.05      0    140  134.3   0.24   0.50    0.0   1.80    122    2.57    2.53    1.58    1.15    0.85    0.52    0.27    0.14    0.06     1687    1473
 2015 080   172   163   32.3      5  1.586   1181   1497    115   1130   2678   2960   5647     2.0  0.039    281     31  0.000  0.000  0.000  0.000  0.000  0.000  0.000    3.78  41.02   0.10      0    281  134.3   0.24   0.50    0.0   1.80    121    2.55    2.51    1.57    1.15    0.84    0.52    0.27    0.14    0.06     1707    1488
 2015 081   173   164   32.3      8  1.577   1174   1494    135   1120   2668   3089   6183     2.2  0.044    421     34  0.000  0.000  0.000  0.000  0.000  0.000  0.000    3.76  32.18   0.14      0    421  134.3   0.24   0.50    0.0   1.80    120    2.53    2.49    1.55    1.14    0.84    0.52    0.27    0.13    0.06     1727    1502
 2015 082   174   165   32.3      8  1.544   1148   1478     84   1105   2626   2626   6714     1.3  0.032      0     37  0.000  0.000  0.000  0.000  0.000  0.000  0.000    3.73   0.00   0.00      0      0  134.5   0.24   0.50    0.0   1.80    118    2.50    2.46    1.53    1.12    0.82    0.51    0.26    0.13    0.06     1765    1519
 2015 083   175   166   32.3      8  1.516   1126   1466    102   1094   2592   2722   5143     2.0  0.037    129     29  0.000  0.000  0.000  0.000  0.000  0.000  0.000    3.70  78.67   0.05      0    129  134.7   0.24   0.50    0.0   1.80    117    2.47    2.43    1.52    1.11    0.82    0.51    0.26    0.13    0.06     1802    1534
 2015 084   176   167   32.3      8  1.499   1114   1463    120   1091   2577   2819   5143     2.3  0.043    242     29  0.000  0.000  0.000  0.000  0.000  0.000  0.000    3.68  49.63   0.09      0    242  134.7   0.24   0.50    0.0   1.80    117    2.46    2.42    1.51    1.11    0.81    0.50    0.26    0.13    0.06     1838    1549
 2015 085   177   168   32.3      8  1.490   1107   1466     90   1093   2573   2573   5143     1.8  0.035      0     29  0.000  0.000  0.000  0.000  0.000  0.000  0.000    3.66   0.00   0.00      0      0  134.6   0.24   0.50    0.0   1.80    117    2.46    2.43    1.52    1.11    0.82    0.50    0.26    0.13    0.06     1874    1563
 2015 086   178   169   32.3      8  1.466   1088   1457    105   1083   2545   2621   4012     2.6  0.040     76     22  0.000  0.000  0.000  0.000  0.000  0.000  0.000    3.63  99.99   0.03      0     76  134.8   0.24   0.50    0.0   1.80    116    2.44    2.41    1.50    1.10    0.81    0.50    0.26    0.13    0.06     1909    1578
 2015 087   179   170   32.3      8  1.476   1111   1490    114   1113   2600   2717   4012     2.8  0.042    116     22  0.000  0.000  0.000  0.000  0.000  0.000  0.000    3.63  97.97   0.04      0    116  132.9   0.24   0.50    0.0   1.80    119    2.50    2.46    1.54    1.13    0.83    0.51    0.27    0.14    0.07     1944    1589
