*PLANT C OUTPUT FILE

*DSSAT Cropping System Model Ver. 4.8.5.017 pre-release  JUN 28, 2025 01:29:39

*RUN   1        : Radiance                  CRGRO048 UFBA1401    1
 MODEL          : CRGRO048 - Strawberry
 EXPERIMENT     : UFBA1401 SR 2014 BALM STRAWBERRY VARIETY TRIAL
 DATA PATH      : /data/Strawberry/
 TREATMENT  1   : Radiance                  CRGRO048
  
@YEAR DOY   DAS   DAP   TWAD    PHAD    CMAD    CGRD    GRAD    MRAD    CHAD   CL%D   CS%D   TGNN   TGAV    GN%D    GL%D    GC%D
 2014 282     9     0    175  0.0000  0.0220  0.0143  0.0060  0.0000 0.00000  3.916  7.824 29.100 25.019  0.0000  0.0000  0.0000
 2014 283    10     1    175  0.1518  0.0142  0.0741  0.0095  0.0833 0.00000  3.873  7.710 29.359 24.828  0.0000  0.0000  0.0000
 2014 284    11     2    183  1.7319  0.0174  1.0074  0.3872  0.1604 0.00000  3.847  7.595 29.850 25.323  0.0000  0.0000  0.0000
 2014 285    12     3    193  1.7836  0.0183  1.1742  0.3463  0.1624 0.00000  3.820  7.491 29.397 24.978  0.0000  0.0000  0.0000
 2014 286    13     4    203  1.8113  0.0192  1.1834  0.3525  0.1707 0.00000  3.794  7.393 29.480 25.238  0.0000  0.0000  0.0000
 2014 287    14     5    207  0.9212  0.0211  0.6233  0.1523  0.1312 0.00000  3.763  7.269 27.685 25.184  0.0000  0.0000  0.0000
 2014 288    15     6    217  1.7930  0.0210  1.1935  0.3581  0.1315 0.00000  3.742  7.177 25.565 21.330  0.0000  0.0000  0.0000
 2014 289    16     7    229  2.1223  0.0214  1.4427  0.4220  0.1330 0.00000  3.725  7.102 24.439 20.172  0.0000  0.0000  0.0000
 2014 290    17     8    241  2.1971  0.0209  1.4913  0.4403  0.1322 0.00000  3.709  7.039 24.660 19.322  0.0000  0.0000  0.0000
 2014 291    18     9    254  2.1904  0.0214  1.4831  0.4434  0.1362 0.00000  3.697  6.977 24.965 19.285  0.0000  0.0000  0.0000
 2014 292    19    10    265  2.0956  0.0234  1.4200  0.4151  0.1520 0.00000  3.686  6.905 25.896 20.671  0.0000  0.0000  0.0000
 2014 293    20    11    276  1.9973  0.0248  1.3246  0.4198  0.1639 0.00000  3.690  6.816 26.617 21.638  0.0000  0.0000  0.0000
 2014 294    21    12    283  1.5385  0.0274  1.0232  0.3027  0.1709 0.00000  3.680  6.708 26.887 23.536  0.0000  0.0000  0.0000
 2014 295    22    13    295  2.3143  0.0268  1.4880  0.4965  0.2060 0.00000  3.676  6.626 27.506 23.467  0.0000  0.0000  0.0000
 2014 296    23    14    311  2.7823  0.0271  1.8448  0.6020  0.1912 0.00000  3.685  6.559 25.411 21.030  0.0000  0.0000  0.0000
 2014 297    24    15    327  2.9864  0.0279  1.9915  0.6496  0.1886 0.00000  3.695  6.499 24.503 20.126  0.0000  0.0000  0.0000
 2014 298    25    16    346  3.3198  0.0285  2.2121  0.7306  0.1928 0.00000  3.705  6.450 23.982 19.402  0.0000  0.0000  0.0000
 2014 299    26    17    366  3.5454  0.0257  2.3403  0.7974  0.1881 0.00000  3.713  6.420 24.391 17.853  0.0000  0.0000  0.0000
 2014 300    27    18    387  3.7272  0.0289  2.4754  0.8193  0.2246 0.00000  3.721  6.383 25.484 19.502  0.0000  0.0000  0.0000
 2014 301    28    19    409  3.8371  0.0321  2.5364  0.8325  0.2634 0.00000  3.727  6.337 26.499 21.105  0.0000  0.0000  0.0000
 2014 302    29    20    428  3.5049  0.0344  2.3179  0.7443  0.2746 0.00000  3.727  6.279 26.981 21.935  0.0000  0.0000  0.0000
 2014 303    30    21    446  3.4389  0.0369  2.2747  0.7260  0.2796 0.00000  3.723  6.214 26.519 22.094  0.0000  0.0000  0.0000
 2014 304    31    22    473  4.8498  0.0406  3.2137  1.0744  0.2842 0.00000  3.724  6.164 23.018 20.208  0.0000  0.0000  0.0000
 2014 305    32    23    504  5.2312  0.0271  3.5096  1.2189  0.1456 0.00072  3.739  6.170 15.881 12.662  0.0000  0.0000  0.0000
 2014 306    33    24    537  5.4063  0.0256  3.6170  1.2683  0.1424 0.00172  3.750  6.188 16.527 11.463  0.0000  0.0000  0.0000
 2014 307    34    25    570  5.5915  0.0327  3.7506  1.2836  0.1981 0.00295  3.758  6.193 19.671 13.824  0.0000  0.0000  0.0000
 2014 308    35    26    600  5.3510  0.0433  3.6109  1.1670  0.2953 0.00441  3.765  6.172 23.473 18.178  0.0000  0.0000  0.0000
 2014 309    36    27    630  5.4935  0.0509  3.6424  1.1798  0.3903 0.00614  3.768  6.141 25.430 21.300  0.0000  0.0000  0.0000
 2014 310    37    28    657  5.1540  0.0525  3.4030  1.0894  0.4125 0.00727  3.768  6.109 26.386 22.020  0.0000  0.0000  0.0000
 2014 311    38    29    694  6.6329  0.0506  4.4012  1.4754  0.3562 0.01142  3.781  6.116 23.162 18.425  0.0000  0.0000  0.0000
 2014 312    39    30    724  5.5375  0.0510  3.7457  1.1988  0.3097 0.01124  3.790  6.107 22.477 17.437  0.0000  0.0000  0.0000
 2014 313    40    31    742  3.7473  0.0542  2.7016  0.7347  0.2321 0.00940  3.799  6.066 18.593 16.347  0.0000  0.0000  0.0000
 2014 314    41    32    785  7.7500  0.0581  5.0106  1.7749  0.4030 0.01994  3.810  6.094 22.497 18.382  0.0000  0.0000  0.0000
 2014 315    42    33    831  8.1858  0.0603  5.4808  1.8123  0.4053 0.02431  3.832  6.134 21.970 17.825  0.0000  0.0000  0.0000
 2014 316    43    34    880  8.6766  0.0593  5.7491  1.9430  0.4269 0.02709  3.851  6.183 22.885 17.419  0.0000  0.0000  0.0000
 2014 317    44    35    928  8.5070  0.0581  5.6157  1.9124  0.4226 0.02843  3.867  6.233 23.416 16.665  0.0000  0.0000  0.0000
 2014 318    45    36    958  5.6521  0.0665  3.9274  1.1877  0.3001 0.02046  3.873  6.219 19.352 15.555  4.5078  3.7939 59.0323
 2014 319    46    37   1009  9.0282  0.0666  5.9189  2.0709  0.3940 0.03392  3.885  6.267 20.941 15.622  4.5079  3.8050 59.0204
 2014 320    47    38   1054  8.4641  0.0806  5.6652  1.8007  0.5601 0.03330  3.898  6.280 24.874 19.626  4.5373  4.2346 58.4071
 2014 321    48    39   1075  4.9095  0.0928  3.4174  0.8942  0.5340 0.01851  3.892  6.212 25.674 21.614  4.5776  4.5191 57.8709
 2014 322    49    40   1088  3.1386  0.0610  2.1576  0.6587  0.1977 0.01262  3.882  6.172 16.783 12.084  4.5684  4.1170 58.3303
 2014 323    50    41   1135  7.7663  0.0458  5.0059  1.8883  0.1895 0.03559  3.891  6.243 13.600  9.275  4.5733  3.7199 58.6969
 2014 324    51    42   1186  8.7699  0.0623  5.8926  2.0115  0.2724 0.04247  3.908  6.307 16.211 11.585  4.5682  3.4914 58.9575
 2014 325    52    43   1230  8.3255  0.0924  5.6869  1.7797  0.4478 0.03997  3.918  6.314 20.768 16.415  4.5542  3.6287 58.9076
 2014 326    53    44   1254  5.6210  0.1183  4.0009  1.0308  0.5315 0.02535  3.911  6.239 22.191 20.033  4.5609  3.9122 58.5822
 2014 327    54    45   1290  7.9405  0.1151  5.0124  1.6342  0.8753 0.03587  3.904  6.205 27.438 24.540  4.6019  4.1241 58.1143
 2014 328    55    46   1254  7.9663  0.1189  5.1562  1.5829  0.8982 0.04004  3.902  6.179 27.417 24.655  4.6645  3.4536 59.6231
 2014 329    56    47   1265  3.7460  0.1238  2.7034  0.5507  0.6164 0.01823  3.882  6.075 25.381 23.058  4.6711  3.7644 59.0232
 2014 330    57    48   1289  5.4012  0.0915  3.5064  1.2057  0.3343 0.03041  3.872  6.051 19.118 14.576  4.6511  3.7302 59.0623
 2014 331    58    49   1355 11.3131  0.0822  7.3549  2.6656  0.3784 0.07348  3.895  6.159 17.782 12.705  4.6393  3.6438 59.1431
 2014 332    59    50   1422 11.0850  0.0682  7.3236  2.6212  0.2645 0.07696  3.924  6.281 13.839  9.840  4.6361  3.5153 59.2447
 2014 333    60    51   1488 11.6887  0.0999  7.8344  2.6335  0.4569 0.08215  3.949  6.369 19.106 13.765  4.6246  3.4865 59.2775
 2014 334    61    52   1548 11.2791  0.1276  7.5950  2.4259  0.6465 0.08043  3.969  6.414 22.291 17.423  4.6114  3.5918 59.1670
 2014 335    62    53   1558 10.2524  0.1445  6.9336  2.1356  0.7104 0.07671  3.983  6.428 22.906 18.879  4.5640 -0.2880 63.8347
 2014 336    63    54   1597  8.7380  0.1531  6.0098  1.7225  0.7212 0.06840  3.989  6.406 22.635 19.951  4.5678  1.0528 62.1846
 2014 337    64    55   1642  9.9127  0.1558  6.6139  2.0327  0.8088 0.07673  3.995  6.397 23.699 20.480  4.5741  1.9323 61.0821
 2014 338    65    56   1677 11.4319  0.1563  7.5590  2.3947  0.8770 0.09188  4.007  6.416 24.358 20.437  4.5837  0.1799 63.2743
 2014 339    66    57   1728 10.8718  0.1675  7.2892  2.2128  0.8893 0.09136  4.017  6.419 23.898 20.850  4.5907  1.5985 61.4772
 2014 340    67    58   1781 11.1696  0.1694  7.3202  2.2794  1.0297 0.09299  4.024  6.422 26.014 22.197  4.6081  2.4598 60.3109
 2014 341    68    59   1809  7.1531  0.1696  5.0755  1.3308  0.6382 0.06163  4.019  6.369 21.410 18.230  4.5923  2.9053 59.8367
 2014 342    69    60   1785  4.2489  0.1518  3.2346  0.6948  0.4176 0.03492  4.005  6.288 17.126 15.252  4.5633  2.4682 60.2254
 2014 343    70    61   1855 12.9481  0.1309  7.9885  3.1779  0.4747 0.11493  4.012  6.366 16.211 13.200  4.5543  2.5688 60.1395
 2014 344    71    62   1932 13.2592  0.1125  8.7443  3.0911  0.3860 0.13361  4.039  6.483 15.411 10.495  4.5558  2.4851 60.1949
 2014 345    72    63   1990 13.1931  0.1160  8.7453  3.0640  0.3772 0.13461  4.064  6.589 14.972 10.157  4.5607  2.9919 59.8608
 2014 346    73    64   2030  7.4082  0.1149  4.9862  1.6829  0.2678 0.07724  4.060  6.608 12.295  9.588  4.5645  2.8047 59.9831
 2014 347    74    65   2110 13.9721  0.1366  9.2505  3.2134  0.4716 0.14549  4.082  6.701 16.846 11.365  4.5610  2.6917 60.0567
 2014 348    75    66   2188 13.8601  0.1436  9.2106  3.1643  0.4912 0.14686  4.103  6.784 17.270 11.356  4.5586  2.6145 60.1071
 2014 349    76    67   2240 13.4486  0.1491  8.9329  3.0523  0.5215 0.14235  4.119  6.852 18.141 11.392  4.5556  2.7076 60.0466
 2014 350    77    68   2316 14.0927  0.1760  9.4024  3.1433  0.6282 0.15222  4.134  6.907 19.246 13.299  4.5478  2.7699 59.9887
 2014 351    78    69   2381 12.9326  0.2057  8.7841  2.7567  0.7239 0.13870  4.141  6.921 20.272 15.161  4.5387  2.9718 59.8030
 2014 352    79    70   2435 14.5887  0.1783  9.5975  3.3514  0.5570 0.16084  4.153  6.979 17.244 11.934  4.5380  3.0482 59.7448
 2014 353    80    71   2513 14.7969  0.2164  9.9758  3.2091  0.7650 0.16655  4.165  7.012 20.086 14.842  4.5314  3.1600 59.6411
 2014 354    81    72   2584 14.6128  0.2498  9.8541  3.0364  1.0213 0.15703  4.171  7.012 22.949 17.806  4.5310  3.4430 59.3319
 2014 355    82    73   2621  9.9994  0.2800  7.0510  1.8073  1.0445 0.09608  4.158  6.930 23.624 19.550  4.5393  3.7264 58.9757
 2014 356    83    74   2582  9.6703  0.3040  6.5712  1.7150  1.2898 0.08490  4.134  6.826 25.242 22.303  4.5993  2.6840 60.7289
 2014 357    84    75   2619 10.5764  0.2913  6.9429  1.9619  1.3981 0.10408  4.114  6.745 26.237 23.131  4.6245  3.2601 59.7065
 2014 358    85    76   2602  8.2994  0.2970  5.8165  1.3414  1.2382 0.07634  4.088  6.633 25.358 22.286  4.6384  2.6995 60.6303
 2014 359    86    77   2646 10.3837  0.2353  6.9124  2.2334  0.6482 0.11389  4.078  6.601 17.254 14.649  4.6132  2.8548 60.3788
 2014 360    87    78   2689 10.2213  0.2477  7.1051  2.0475  0.7226 0.11146  4.069  6.558 19.138 15.396  4.5915  3.0378 60.1127
 2014 361    88    79   2738 12.3966  0.2984  8.3618  2.3705  1.2910 0.11855  4.056  6.493 24.471 21.096  4.5978  3.5215 59.3671
 2014 362    89    80   2800 14.4097  0.2941  9.4580  2.9342  1.3229 0.14347  4.049  6.459 24.608 20.498  4.5972  3.8256 58.9202
 2014 363    90    81   2728 13.8623  0.3020  9.3077  2.7466  1.2758 0.13057  4.040  6.410 24.131 20.053  4.5894  3.0243 60.0465
 2014 364    91    82   2729  4.3365  0.0000  3.0073  0.2934  0.8200 0.38865  4.216  6.707 20.037 18.667  4.5765  3.4763 59.4505
 2014 365    92    83   2737  5.5943  0.2948  4.0950  0.9260  0.7070 0.02978  4.175  6.555 17.806 16.703  4.5594  3.6532 59.2327
 2015 001    93    84   2737  5.6187  0.2948  4.0950  0.9260  0.7094 0.02978  4.175  6.555 17.806 16.703  4.5594  3.6532 59.2327

*DSSAT Cropping System Model Ver. 4.8.5.017 pre-release  JUN 28, 2025 01:29:44

*RUN   2        : Radiance                  CRGRO048 UFBA1601    1
 MODEL          : CRGRO048 - Strawberry
 EXPERIMENT     : UFBA1601 SR 2016 BALM STRAWBERRY VARIETY TRIAL
 DATA PATH      : /data/Strawberry/
 TREATMENT  1   : Radiance                  CRGRO048
  
@YEAR DOY   DAS   DAP   TWAD    PHAD    CMAD    CGRD    GRAD    MRAD    CHAD   CL%D   CS%D   TGNN   TGAV    GN%D    GL%D    GC%D
 2016 282     9     0    175  0.0000  0.0220  0.0143  0.0060  0.0000 0.00000  3.916  7.824 28.802 25.698  0.0000  0.0000  0.0000
 2016 283    10     1    175  0.1573  0.0148  0.0830  0.0107  0.0793 0.00000  3.872  7.705 28.275 24.162  0.0000  0.0000  0.0000
 2016 284    11     2    183  1.7193  0.0189  1.0405  0.3863  0.1224 0.00000  3.849  7.581 25.758 21.823  0.0000  0.0000  0.0000
 2016 285    12     3    191  1.4246  0.0203  0.9712  0.2683  0.1224 0.00000  3.821  7.456 25.886 22.789  0.0000  0.0000  0.0000
 2016 286    13     4    200  1.6562  0.0202  1.0933  0.3230  0.1470 0.00000  3.793  7.348 27.399 23.956  0.0000  0.0000  0.0000
 2016 287    14     5    209  1.7703  0.0203  1.1594  0.3438  0.1670 0.00000  3.764  7.252 28.329 24.959  0.0000  0.0000  0.0000
 2016 288    15     6    219  1.8769  0.0216  1.2380  0.3648  0.1690 0.00000  3.735  7.161 27.614 24.421  0.0000  0.0000  0.0000
 2016 289    16     7    226  1.3974  0.0218  0.9246  0.2550  0.1603 0.00000  3.707  7.062 28.372 25.111  0.0000  0.0000  0.0000
 2016 290    17     8    235  1.6666  0.0224  1.0900  0.3185  0.1720 0.00000  3.680  6.973 28.192 24.796  0.0000  0.0000  0.0000
 2016 291    18     9    245  1.8883  0.0227  1.2301  0.3709  0.1865 0.00000  3.658  6.893 28.520 24.814  0.0000  0.0000  0.0000
 2016 292    19    10    254  1.7553  0.0235  1.1428  0.3617  0.1772 0.00000  3.655  6.797 28.228 24.179  0.0000  0.0000  0.0000
 2016 293    20    11    265  2.0998  0.0243  1.3651  0.4446  0.1872 0.00000  3.655  6.712 27.620 23.575  0.0000  0.0000  0.0000
 2016 294    21    12    277  2.2637  0.0247  1.4825  0.4799  0.1913 0.00000  3.658  6.634 27.364 23.045  0.0000  0.0000  0.0000
 2016 295    22    13    290  2.3847  0.0257  1.5722  0.5069  0.1902 0.00000  3.662  6.560 26.593 22.347  0.0000  0.0000  0.0000
 2016 296    23    14    308  3.1222  0.0243  2.0847  0.7010  0.1489 0.00000  3.676  6.518 21.973 17.524  0.0000  0.0000  0.0000
 2016 297    24    15    327  3.2393  0.0220  2.1505  0.7405  0.1385 0.00000  3.686  6.494 21.903 15.699  0.0000  0.0000  0.0000
 2016 298    25    16    346  3.3977  0.0278  2.2852  0.7433  0.1897 0.00000  3.697  6.451 23.787 19.035  0.0000  0.0000  0.0000
 2016 299    26    17    365  3.2971  0.0301  2.2059  0.7140  0.2086 0.00000  3.703  6.398 24.592 20.051  0.0000  0.0000  0.0000
 2016 300    27    18    385  3.6824  0.0325  2.4125  0.8007  0.2671 0.00000  3.704  6.345 26.375 22.181  0.0000  0.0000  0.0000
 2016 301    28    19    403  3.4090  0.0347  2.2463  0.7251  0.2728 0.00000  3.700  6.282 26.416 22.672  0.0000  0.0000  0.0000
 2016 302    29    20    422  3.5799  0.0368  2.3371  0.7649  0.2977 0.00000  3.693  6.216 26.436 23.278  0.0000  0.0000  0.0000
 2016 303    30    21    441  3.6478  0.0377  2.3859  0.7749  0.3090 0.00000  3.687  6.152 26.696 23.300  0.0000  0.0000  0.0000
 2016 304    31    22    464  4.2078  0.0379  2.7261  0.9061  0.3496 0.00000  3.683  6.099 27.520 23.647  0.0000  0.0000  0.0000
 2016 305    32    23    493  5.1942  0.0393  3.3908  1.1356  0.3692 0.00000  3.686  6.064 26.678 22.568  0.0000  0.0000  0.0000
 2016 306    33    24    521  5.0507  0.0400  3.3440  1.0901  0.3449 0.00142  3.692  6.035 26.121 21.399  0.0000  0.0000  0.0000
 2016 307    34    25    544  4.4671  0.0434  2.9343  0.9407  0.3733 0.00252  3.691  5.994 27.064 22.961  0.0000  0.0000  0.0000
 2016 308    35    26    572  5.1844  0.0462  3.3903  1.1140  0.3973 0.00441  3.692  5.968 26.230 22.609  0.0000  0.0000  0.0000
 2016 309    36    27    602  5.5621  0.0457  3.6617  1.1969  0.3985 0.00643  3.701  5.959 26.336 21.694  0.0000  0.0000  0.0000
 2016 310    37    28    638  6.4931  0.0507  4.2514  1.4148  0.4468 0.00940  3.711  5.963 25.618 22.003  0.0000  0.0000  0.0000
 2016 311    38    29    674  6.5632  0.0522  4.3224  1.4190  0.4519 0.01155  3.724  5.972 25.736 21.647  0.0000  0.0000  0.0000
 2016 312    39    30    705  5.8625  0.0551  3.9297  1.2444  0.3962 0.01240  3.735  5.968 24.268 20.420  0.0000  0.0000  0.0000
 2016 313    40    31    745  7.2949  0.0569  4.7778  1.5934  0.4832 0.01726  3.751  5.993 25.364 21.178  0.0000  0.0000  0.0000
 2016 314    41    32    781  6.7310  0.0597  4.4631  1.4336  0.4773 0.01812  3.765  6.006 25.478 21.159  0.0000  0.0000  0.0000
 2016 315    42    33    828  8.4342  0.0609  5.5640  1.8583  0.4866 0.02519  3.788  6.055 24.171 19.686  0.0000  0.0000  0.0000
 2016 316    43    34    875  8.5101  0.0623  5.6579  1.8680  0.4690 0.02807  3.812  6.106 23.645 18.790  0.0000  0.0000  0.0000
 2016 317    44    35    924  8.7171  0.0657  5.7696  1.9080  0.5104 0.03101  3.834  6.155 24.597 19.169  0.0000  0.0000  0.0000
 2016 318    45    36    970  8.5228  0.0684  5.6442  1.8511  0.5236 0.03221  3.854  6.196 25.028 19.163  0.0000  0.0000  0.0000
 2016 319    46    37    988  4.2331  0.0868  3.0975  0.7474  0.3874 0.01792  3.852  6.132 21.253 19.322  4.5610  4.6529 57.8408
 2016 320    47    38   1023  6.8337  0.0760  4.4799  1.5240  0.3712 0.02788  3.856  6.131 20.003 16.652  4.5330  4.3176 58.3508
 2016 321    48    39   1075  9.5568  0.0780  6.3194  2.1272  0.4848 0.04329  3.875  6.186 22.189 17.317  4.5280  4.2908 58.4095
 2016 322    49    40   1134 10.4741  0.0795  6.9345  2.3388  0.5089 0.04982  3.897  6.256 22.397 16.886  4.5236  4.2373 58.4901
 2016 323    50    41   1189 10.2088  0.0929  6.8136  2.2039  0.6050 0.05001  3.917  6.297 23.695 18.864  4.5343  4.3729 58.2881
 2016 324    51    42   1244 10.1122  0.0985  6.7372  2.1903  0.5953 0.05184  3.933  6.330 23.170 18.477  4.5368  4.4169 58.2280
 2016 325    52    43   1311 11.6152  0.0818  7.6784  2.6844  0.3876 0.06486  3.956  6.421 17.470 13.286  4.5331  4.1717 58.4963
 2016 326    53    44   1348 10.8556  0.0742  7.2116  2.5072  0.3420 0.06310  3.977  6.507 17.461 11.458  4.5355  4.8805 57.8137
 2016 327    54    45   1414 11.3316  0.0894  7.5325  2.5669  0.4568 0.06821  3.995  6.578 20.284 13.679  4.5314  4.5774 58.1352
 2016 328    55    46   1464  9.6375  0.1155  6.5070  2.0207  0.6404 0.05804  4.004  6.587 24.007 18.113  4.5322  4.5476 58.1530
 2016 329    56    47   1475  9.9085  0.1333  6.6380  2.0381  0.7746 0.06002  4.012  6.580 25.020 20.308  4.5542  4.4417 58.4235
 2016 330    57    48   1529 10.9408  0.1402  7.2349  2.2726  0.8768 0.07068  4.023  6.584 25.603 21.364  4.5709  4.5499 58.1341
 2016 331    58    49   1578 10.1399  0.1439  6.8285  2.0931  0.7469 0.06790  4.030  6.577 23.740 19.570  4.5702  4.5797 58.0560
 2016 332    59    50   1637 11.1934  0.1351  7.4156  2.4404  0.6569 0.08011  4.040  6.604 22.335 17.194  4.5619  4.5210 58.1332
 2016 333    60    51   1651  9.2153  0.1507  6.3110  1.8678  0.6767 0.06912  4.045  6.590 22.707 18.340  4.5495  4.5917 58.1069
 2016 334    61    52   1705 11.3447  0.1588  7.4412  2.3330  0.9954 0.08546  4.053  6.595 26.185 21.955  4.5738  4.6788 57.8358
 2016 335    62    53   1740  8.4492  0.1751  5.7548  1.5836  0.9093 0.06344  4.047  6.542 25.150 22.164  4.5943  4.7481 57.6130
 2016 336    63    54   1761 10.4806  0.1756  6.8482  2.1210  1.0198 0.07960  4.045  6.520 25.798 22.410  4.6273  4.6382 57.9852
 2016 337    64    55   1827 13.0281  0.1639  8.6330  2.8160  0.7877 0.10856  4.060  6.556 22.040 18.084  4.6020  4.5814 58.0517
 2016 338    65    56   1895 13.1908  0.1611  8.7462  2.8484  0.8019 0.11192  4.074  6.598 22.923 17.661  4.5837  4.5220 58.1285
 2016 339    66    57   1957 12.9082  0.1864  8.5650  2.6303  1.0992 0.10761  4.084  6.607 25.920 21.465  4.5958  4.6258 57.8696
 2016 340    67    58   1953 10.3414  0.1976  6.8451  1.9850  1.1629 0.08274  4.080  6.569 27.168 23.116  4.6379  4.5161 58.2377
 2016 341    68    59   1968  5.7160  0.2065  4.1430  0.8569  0.8855 0.03948  4.056  6.455 25.247 21.966  4.6410  4.6380 57.8872
 2016 342    69    60   2034 13.6693  0.1984  8.5798  3.0813  0.9380 0.11303  4.053  6.465 22.698 19.184  4.6215  4.6368 57.8855
 2016 343    70    61   2036 11.1265  0.1903  7.6569  2.2905  0.6944 0.09807  4.058  6.457 19.922 16.610  4.5858  4.8748 57.5337
 2016 344    71    62   2087 10.1510  0.1573  6.8493  2.2291  0.4586 0.09813  4.062  6.473 15.508 13.134  4.5735  4.5304 57.9424
 2016 345    72    63   2164 14.4397  0.1771  9.5115  3.2285  0.6953 0.14407  4.077  6.537 20.025 14.976  4.5615  4.3647 58.1731
 2016 346    73    64   2215 11.0029  0.2116  7.5530  2.1924  0.8592 0.10122  4.076  6.514 22.817 18.237  4.5562  4.3858 58.1748
 2016 347    74    65   2198 11.6537  0.2348  7.7635  2.2962  1.1457 0.10308  4.071  6.477 25.257 21.380  4.5964  3.7972 59.2992
 2016 348    75    66   2259 13.2957  0.2236  8.6950  2.7111  1.2146 0.12778  4.074  6.474 25.897 21.453  4.6056  4.1136 58.6915
 2016 349    76    67   2319 13.3353  0.2408  8.9170  2.6695  1.1738 0.12322  4.074  6.453 24.486 20.978  4.6071  4.3124 58.3278
 2016 350    77    68   2314 14.4001  0.2337  9.5352  3.0514  0.9955 0.13302  4.076  6.453 22.506 18.397  4.5782  4.2396 58.4080
 2016 351    78    69   2389 15.0174  0.2177  9.8337  3.2467  0.9835 0.15576  4.084  6.488 23.276 17.698  4.5652  4.2677 58.3934
 2016 352    79    70   2453 13.8504  0.2472  9.1969  2.7871  1.2406 0.13100  4.084  6.472 25.582 20.806  4.5756  4.4187 58.1273
 2016 353    80    71   2494 10.8847  0.2683  7.1713  1.9953  1.4617 0.08920  4.064  6.396 27.505 24.031  4.6136  4.5487 57.7278
 2016 354    81    72   2439 13.2506  0.2679  8.4361  2.6259  1.5745 0.11389  4.051  6.353 27.945 23.905  4.6603  4.2654 58.5729
 2016 355    82    73   2468  9.0675  0.2812  6.4754  1.5523  1.0625 0.06855  4.023  6.240 22.970 20.866  4.6468  4.4170 58.2588
 2016 356    83    74   2498  8.5689  0.2486  6.0876  1.6148  0.7215 0.05813  3.998  6.141 18.885 16.648  4.6190  4.3499 58.3484
 2016 357    84    75   2476 15.7501  0.2474 10.0479  3.4884  1.0731 0.15245  3.997  6.159 23.076 18.133  4.5778  4.2587 58.4849
 2016 358    85    76   2551 15.7179  0.2438 10.3607  3.2910  1.1739 0.16512  4.004  6.180 24.234 19.224  4.5724  4.3679 58.3078
 2016 359    86    77   2620 15.1257  0.2614  9.9142  3.0685  1.3868 0.14606  4.003  6.171 26.177 21.234  4.5846  4.5012 58.0338
 2016 360    87    78   2686 14.6458  0.2824  9.5618  2.9100  1.5226 0.13188  3.994  6.135 26.627 22.551  4.6063  4.6170 57.7367
 2016 361    88    79   2597 14.6463  0.2933  9.5112  2.9121  1.5642 0.13645  3.985  6.103 26.691 22.715  4.6346  4.4141 58.2773
 2016 362    89    80   2660 14.7112  0.2809  9.5988  2.9356  1.4885 0.14540  3.979  6.079 26.466 22.289  4.6411  4.5445 57.9505
 2016 363    90    81   2727 15.4985  0.2865 10.1047  3.1255  1.5078 0.14617  3.972  6.056 26.457 21.945  4.6426  4.6292 57.7509
 2016 364    91    82   2678 16.1459  0.2951 10.6463  3.3589  1.2769 0.15703  3.968  6.043 23.769 19.591  4.6070  4.5689 57.7508
 2016 365    92    83   2761 14.9055  0.1803  9.3909  3.6230  0.4306 0.21954  3.984  6.159 13.366  9.654  4.6054  4.2313 58.0864
 2016 366    93    84   2848 15.6882  0.2132 10.3213  3.5177  0.7146 0.22800  4.005  6.254 19.593 12.102  4.5943  3.9748 58.3971
 2017 001    94    85   2920 15.3549  0.2899 10.3167  3.0864  1.2744 0.17808  4.007  6.252 24.749 19.097  4.5859  4.1140 58.2913
 2017 002    95    86   2878 15.4652  0.3211 10.1912  3.0012  1.6687 0.16816  4.002  6.225 27.103 22.486  4.6187  3.6740 59.0370
 2017 003    96    87   2935 14.3514  0.3248  9.4526  2.7797  1.5683 0.14763  3.986  6.169 25.935 22.321  4.6298  3.9944 58.5038
 2017 004    97    88   3007 15.8885  0.3018 10.4496  3.4134  1.0447 0.18471  3.981  6.166 21.081 16.897  4.6083  4.0262 58.5234
 2017 005    98    89   2964 16.7428  0.3144 11.1634  3.5452  1.0911 0.18713  3.978  6.161 21.126 17.007  4.5685  3.8706 58.4774
 2017 006    99    90   3050 17.4260  0.2882 11.2642  3.7966  1.1623 0.23182  3.984  6.200 22.868 17.206  4.5558  3.9685 58.4856
 2017 007   100    91   3065  5.1215  0.2495  3.8440  0.8838  0.5304 0.04031  3.941  6.096 17.964 11.965  4.5528  3.7593 58.7237
 2017 008   101    92   3142 13.1640  0.1664  7.8027  3.4381  0.2826 0.21728  3.949  6.200  9.973  5.749  4.5556  3.5930 58.8751
 2017 009   102    93   3152 17.2160  0.2395 11.5272  3.8610  0.6094 0.28228  3.977  6.311 16.103 10.468  4.5582  4.5679 57.9105
 2017 010   103    94   3237 16.4393  0.2899 11.1191  3.5288  0.8303 0.25781  3.992  6.363 18.569 13.838  4.5481  4.2788 58.2702
 2017 011   104    95   3317 16.9660  0.3342 11.4226  3.5353  1.1298 0.22282  3.992  6.364 21.549 16.614  4.5405  4.2361 58.3659
 2017 012   105    96   3286 19.1422  0.3598 12.6179  4.0084  1.4379 0.22907  3.991  6.358 23.671 18.600  4.5420  4.1671 58.4363
 2017 013   106    97   3338 14.2095  0.3898  9.9999  2.6159  1.3706 0.11602  3.961  6.243 22.797 19.705  4.5503  4.3205 58.2337
 2017 014   107    98   3395 15.3017  0.3841 10.3039  3.0125  1.4488 0.09944  3.924  6.125 23.881 19.779  4.5560  4.4206 58.0992
 2017 015   108    99   3457 15.0178  0.3897 10.2611  2.9337  1.3768 0.09826  3.888  6.008 23.089 19.153  4.5563  4.4679 58.0514
 2017 016   109   100   3249 14.5765  0.3923  9.9283  2.8236  1.4300 0.08084  3.848  5.883 23.944 19.433  4.5598  4.2835 58.2768
 2017 017   110   101   3326 17.8088  0.3585 11.6815  3.6456  1.5827 0.14328  3.823  5.811 24.908 20.327  4.5682  4.4275 58.0637
 2017 018   111   102   3411 18.2514  0.3586 12.1024  3.8100  1.3898 0.14668  3.799  5.749 23.329 18.443  4.5618  4.4452 58.0761
 2017 019   112   103   3283 19.0920  0.3630 12.4576  4.0439  1.4892 0.18172  3.786  5.721 24.345 18.646  4.5558  4.4071 58.0863
 2017 020   113   104   3359 17.2482  0.3610 11.5870  3.4516  1.4909 0.14000  3.762  5.649 24.462 19.603  4.5589  4.4756 58.0066
 2017 021   114   105   3445 19.2665  0.3812 12.6844  3.9153  1.7490 0.13527  3.735  5.570 25.531 20.939  4.5701  4.5612 57.8562
 2017 022   115   106   3471 10.0207  0.0337  6.8054  1.5061  1.6194 0.01419  3.779  5.547 25.611 22.469  4.5912  4.6481 57.6419
 2017 023   116   107   3223 17.3824  0.4068 11.5552  3.7050  1.2346 0.04799  3.727  5.396 19.465 17.572  4.5587  5.0564 56.7082
 2017 024   117   108   3333 21.8188  0.3063 14.0562  4.9569  1.0366 0.27007  3.736  5.458 19.074 15.014  4.5481  4.7650 57.2172
 2017 025   118   109   3437 20.7971  0.3308 13.6148  4.5440  1.2318 0.24539  3.737  5.490 21.952 16.332  4.5410  4.6165 57.5273
 2017 026   119   110   3267 14.7458  0.1396 10.1876  2.6355  1.5398 0.01762  3.753  5.420 23.490 20.610  4.5681  4.5240 57.5707
 2017 027   120   111   3340 15.9613  0.3294 10.7878  3.3966  0.9515 0.08972  3.712  5.319 18.095 15.552  4.5530  4.3405 57.9380
 2017 028   121   112   3413 13.9583  0.2756  9.0483  3.2504  0.5564 0.19348  3.701  5.343 13.539 11.062  4.5530  4.0749 58.2346
 2017 029   122   113   3455  8.6889  0.2736  5.9279  1.9121  0.4537 0.09926  3.665  5.294 12.802 10.256  4.5549  3.8539 58.4652
 2017 030   123   114   3378 21.9355  0.2874 14.0738  5.1736  0.6955 0.38171  3.705  5.466 15.191 10.910  4.5554  5.4317 56.7155
 2017 031   124   115   3494 21.2920  0.2835 13.9516  4.8266  0.8312 0.36036  3.737  5.598 18.206 11.881  4.5519  4.9017 57.3348
 2017 032   125   116   3614 22.0378  0.3279 14.2343  4.9888  1.0823 0.33395  3.754  5.688 20.657 14.056  4.5434  4.5803 57.7726
 2017 033   126   117   3517 21.0127  0.3890 14.0839  4.4192  1.4123 0.17652  3.731  5.633 22.800 17.283  4.5354  4.6801 57.5551
 2017 034   127   118   3622 22.1503  0.3795 14.5958  4.7215  1.4984 0.21398  3.716  5.600 23.085 18.041  4.5350  4.6114 57.7374
 2017 035   128   119   3721 21.7309  0.4061 14.6347  4.5469  1.4625 0.13719  3.682  5.507 22.186 17.820  4.5338  4.5565 57.8709
 2017 036   129   120   3812 20.1637  0.4248 13.7179  4.1707  1.4227 0.08951  3.636  5.380 21.769 17.707  4.5326  4.5115 57.9751
 2017 037   130   121   3508 21.8112  0.4245 14.2896  4.6533  1.6520 0.14292  3.605  5.303 24.158 18.488  4.5367  4.5131 57.8720
 2017 038   131   122   3599 20.1428  0.3908 13.5238  4.0109  1.8145 0.08874  3.559  5.174 25.471 20.856  4.5550  4.6025 57.7358
 2017 039   132   123   3682 19.3043  0.4193 13.1437  3.8118  1.7387 0.02507  3.496  4.993 24.142 20.515  4.5646  4.6533 57.6705
 2017 040   133   124   3418 21.8580  0.4182 14.6317  4.5453  1.6840 0.02823  3.435  4.827 23.581 19.300  4.5629  4.6545 57.5446
 2017 041   134   125   3539 24.2172  0.3210 15.5177  5.5206  1.1552 0.32874  3.459  4.921 20.186 15.012  4.5520  4.4536 57.8690
 2017 042   135   126   3658 23.6230  0.3536 15.4517  5.1321  1.4825 0.22877  3.455  4.927 23.541 17.196  4.5456  4.4085 58.0006
 2017 043   136   127   3776 23.7593  0.3881 15.7517  5.1019  1.5345 0.14018  3.426  4.858 23.174 17.579  4.5416  4.3907 58.0802
 2017 044   137   128   3446 21.5796  0.4334 14.5385  4.4027  1.8092 0.02911  3.366  4.694 24.662 19.921  4.5567  4.1891 58.3279
 2017 045   138   129   3529 19.0410  0.3717 12.8796  3.8236  1.6358 0.02606  3.305  4.527 24.213 20.088  4.5633  4.3377 58.1388
 2017 046   139   130   3609 18.5655  0.4006 12.4853  3.7015  1.7566 0.02553  3.241  4.356 24.109 21.047  4.5750  4.4621 57.9422
 2017 047   140   131   3421 24.6798  0.3292 15.5702  5.8545  0.9605 0.33144  3.273  4.477 17.706 12.988  4.5589  6.2608 55.7375
 2017 048   141   132   3544 23.0350  0.2557 14.6554  5.2902  1.0449 0.38159  3.317  4.633 20.853 13.099  4.5520  5.7037 56.4233
 2017 049   142   133   3608 14.4438  0.2816 10.0602  2.8471  1.1126 0.02112  3.267  4.500 21.540 16.297  4.5432  5.3339 56.9400
 2017 050   143   134   3707 21.7294  0.3629 14.3014  4.5512  1.7750 0.03019  3.207  4.340 24.437 20.088  4.5527  5.1965 57.0981
 2017 051   144   135   3399 24.0562  0.3663 15.6421  5.1369  1.8730 0.08595  3.164  4.236 25.309 19.782  4.5614  5.5211 56.6909
 2017 052   145   136   3470 16.4323  0.3108 11.2139  3.2027  1.5214 0.02414  3.102  4.076 23.895 19.988  4.5660  5.3236 56.9311
 2017 053   146   137   3501  9.8411  0.3154  7.0837  1.7532  1.0756 0.01539  3.041  3.917 20.747 17.668  4.5581  5.1214 57.2254
 2017 054   147   138   3301 17.2275  0.3102 11.0711  3.7073  1.4280 0.02430  2.981  3.776 23.617 18.595  4.5538  5.4778 56.7186
 2017 055   148   139   3405 22.0427  0.2796 14.2009  4.5271  2.0930 0.06900  2.933  3.665 26.545 22.871  4.5842  5.3672 56.7165
 2017 056   149   140   3507 22.4289  0.3058 14.8757  4.6376  1.7800 0.03327  2.876  3.526 24.107 20.534  4.5867  5.2562 56.8659
 2017 057   150   141   3638 25.5999  0.3125 16.4487  5.6367  1.6846 0.18399  2.870  3.529 23.635 18.775  4.5795  5.1262 57.0805
 2017 058   151   142   3238 22.1731  0.3439 14.3376  4.5999  2.0420 0.11658  2.843  3.474 26.852 21.432  4.6090  5.6166 56.8859
 2017 059   152   143   3331 20.7225  0.2550 13.0092  4.2382  2.1487 0.21912  2.847  3.502 28.116 23.561  4.6381  5.4571 56.7836
 2017 060   153   144   3440 23.4181  0.2789 14.6858  4.9046  2.2026 0.26083  2.864  3.563 27.779 22.942  4.6499  5.3540 56.7622
 2017 061   154   145   3267 24.2618  0.3144 15.5614  5.1120  2.0189 0.21372  2.864  3.576 25.713 21.499  4.6421  5.5808 56.5645
 2017 062   155   146   3394 25.8452  0.2763 16.4614  5.7147  1.5188 0.40850  2.924  3.750 22.339 18.156  4.6182  5.3259 56.9328
 2017 063   156   147   3528 26.1530  0.2915 16.5089  5.9380  1.3420 0.47728  2.999  3.977 21.902 16.078  4.6002  5.0955 57.2554
 2017 064   157   148   3647 24.1680  0.3601 15.9075  5.1440  1.6043 0.26558  3.005  4.006 22.404 18.704  4.5890  4.9807 57.4188
 2017 065   158   149   3394 22.1860  0.3802 14.4656  4.7854  1.5182 0.23499  3.001  4.014 22.536 18.100  4.5593  5.8053 56.2059
 2017 066   159   150   3508 23.1984  0.3019 14.7212  5.0563  1.6016 0.35684  3.032  4.115 24.275 18.717  4.5562  5.4843 56.6727
 2017 067   160   151   3615 22.4482  0.3436 14.5140  4.6851  1.8751 0.23257  3.024  4.110 25.733 20.660  4.5669  5.3275 56.8512
 2017 068   161   152   3436 22.9105  0.3679 14.6733  4.7942  2.0450 0.20825  3.010  4.088 26.765 21.339  4.5894  5.5135 56.7007
 2017 069   162   153   3563 26.2813  0.3497 16.8301  5.6683  1.8880 0.31376  3.023  4.135 24.296 20.302  4.5893  5.3138 56.9294
 2017 070   163   154   3692 26.6003  0.3743 16.9263  5.6793  2.1715 0.28153  3.026  4.159 26.689 21.465  4.5986  5.2201 56.9822
 2017 071   164   155   3765 17.4730  0.4289 11.7965  3.4270  1.7860 0.02996  2.955  3.989 24.441 21.108  4.6025  5.1425 57.0479
 2017 072   165   156   3399 11.3957  0.4382  7.9287  2.0975  1.4169 0.02031  2.882  3.816 22.508 19.699  4.5880  5.5061 56.4824
 2017 073   166   157   3529 26.6936  0.3050 16.6009  6.2472  1.3239 0.28291  2.893  3.857 18.825 16.646  4.5689  5.1383 57.0576
 2017 074   167   158   3680 26.1464  0.2615 16.0602  6.3897  0.6508 0.71220  3.027  4.248 14.088  9.587  4.5713  4.7766 57.4280
 2017 075   168   159   3607 24.7683  0.3032 15.6796  5.8629  0.7322 0.61164  3.122  4.533 16.066  9.662  4.5745  6.1116 56.0546
 2017 076   169   160   3760 27.2765  0.3367 17.2698  6.2898  1.1185 0.65911  3.213  4.803 19.860 13.416  4.5647  5.6135 56.6539
 2017 077   170   161   3914 28.9392  0.4076 18.4090  6.5499  1.4740 0.57110  3.271  4.979 21.910 15.955  4.5552  5.3203 57.0414

*DSSAT Cropping System Model Ver. 4.8.5.017 pre-release  JUN 28, 2025 01:29:54

*RUN   3        : Brilliance                CRGRO048 UFBA1601    2
 MODEL          : CRGRO048 - Strawberry
 EXPERIMENT     : UFBA1601 SR 2016 BALM STRAWBERRY VARIETY TRIAL
 DATA PATH      : /data/Strawberry/
 TREATMENT  2   : Brilliance                CRGRO048
  
@YEAR DOY   DAS   DAP   TWAD    PHAD    CMAD    CGRD    GRAD    MRAD    CHAD   CL%D   CS%D   TGNN   TGAV    GN%D    GL%D    GC%D
 2016 282     9     0    175  0.0000  0.0220  0.0143  0.0060  0.0000 0.00000  3.916  7.824 28.802 25.698  0.0000  0.0000  0.0000
 2016 283    10     1    175  0.1598  0.0148  0.0851  0.0109  0.0794 0.00000  3.873  7.705 28.275 24.162  0.0000  0.0000  0.0000
 2016 284    11     2    184  1.8482  0.0189  1.1138  0.4190  0.1270 0.00000  3.850  7.583 25.758 21.823  0.0000  0.0000  0.0000
 2016 285    12     3    192  1.4999  0.0204  1.0209  0.2844  0.1256 0.00000  3.822  7.459 25.886 22.789  0.0000  0.0000  0.0000
 2016 286    13     4    201  1.7564  0.0203  1.1583  0.3447  0.1517 0.00000  3.793  7.353 27.399 23.956  0.0000  0.0000  0.0000
 2016 287    14     5    212  1.8910  0.0205  1.2376  0.3697  0.1733 0.00000  3.764  7.260 28.329 24.959  0.0000  0.0000  0.0000
 2016 288    15     6    223  2.0075  0.0219  1.3231  0.3927  0.1758 0.00000  3.736  7.171 27.614 24.421  0.0000  0.0000  0.0000
 2016 289    16     7    230  1.4567  0.0222  0.9638  0.2670  0.1645 0.00000  3.707  7.072 28.372 25.111  0.0000  0.0000  0.0000
 2016 290    17     8    239  1.7477  0.0228  1.1425  0.3354  0.1773 0.00000  3.680  6.985 28.192 24.796  0.0000  0.0000  0.0000
 2016 291    18     9    250  1.9962  0.0232  1.3001  0.3935  0.1932 0.00000  3.658  6.906 28.520 24.814  0.0000  0.0000  0.0000
 2016 292    19    10    260  1.8390  0.0241  1.1968  0.3803  0.1829 0.00000  3.656  6.811 28.228 24.179  0.0000  0.0000  0.0000
 2016 293    20    11    271  2.2341  0.0249  1.4507  0.4756  0.1950 0.00000  3.657  6.726 27.620 23.575  0.0000  0.0000  0.0000
 2016 294    21    12    284  2.4192  0.0254  1.5827  0.5156  0.1999 0.00000  3.662  6.650 27.364 23.045  0.0000  0.0000  0.0000
 2016 295    22    13    298  2.5429  0.0265  1.6751  0.5430  0.1988 0.00000  3.667  6.578 26.593 22.347  0.0000  0.0000  0.0000
 2016 296    23    14    318  3.4217  0.0251  2.2794  0.7724  0.1584 0.00000  3.683  6.539 21.973 17.524  0.0000  0.0000  0.0000
 2016 297    24    15    339  3.5795  0.0228  2.3734  0.8215  0.1483 0.00000  3.694  6.520 21.903 15.699  0.0000  0.0000  0.0000
 2016 298    25    16    361  3.7444  0.0290  2.5132  0.8238  0.2031 0.00000  3.706  6.480 23.787 19.035  0.0000  0.0000  0.0000
 2016 299    26    17    381  3.6365  0.0315  2.4288  0.7921  0.2236 0.00000  3.713  6.429 24.592 20.051  0.0000  0.0000  0.0000
 2016 300    27    18    404  4.0891  0.0341  2.6760  0.8943  0.2880 0.00000  3.714  6.379 26.375 22.181  0.0000  0.0000  0.0000
 2016 301    28    19    424  3.7443  0.0366  2.4656  0.8003  0.2926 0.00000  3.711  6.317 26.416 22.672  0.0000  0.0000  0.0000
 2016 302    29    20    445  3.9186  0.0389  2.5571  0.8407  0.3192 0.00000  3.704  6.253 26.436 23.278  0.0000  0.0000  0.0000
 2016 303    30    21    466  3.9871  0.0399  2.6066  0.8504  0.3314 0.00000  3.698  6.189 26.696 23.300  0.0000  0.0000  0.0000
 2016 304    31    22    491  4.6319  0.0402  2.9995  1.0016  0.3770 0.00000  3.694  6.138 27.520 23.647  0.0000  0.0000  0.0000
 2016 305    32    23    523  5.7906  0.0418  3.7768  1.2717  0.4021 0.00000  3.697  6.106 26.678 22.568  0.0000  0.0000  0.0000
 2016 306    33    24    555  5.6105  0.0427  3.7117  1.2160  0.3750 0.00158  3.704  6.079 26.121 21.399  0.0000  0.0000  0.0000
 2016 307    34    25    581  4.9303  0.0465  3.2373  1.0423  0.4045 0.00278  3.702  6.039 27.064 22.961  0.0000  0.0000  0.0000
 2016 308    35    26    612  5.7558  0.0496  3.7615  1.2417  0.4325 0.00489  3.704  6.015 26.230 22.609  0.0000  0.0000  0.0000
 2016 309    36    27    646  6.1957  0.0491  4.0758  1.3386  0.4351 0.00715  3.714  6.008 26.336 21.694  0.0000  0.0000  0.0000
 2016 310    37    28    686  7.2959  0.0548  4.7731  1.5963  0.4913 0.01056  3.724  6.016 25.618 22.003  0.0000  0.0000  0.0000
 2016 311    38    29    727  7.3699  0.0565  4.8502  1.5996  0.4971 0.01296  3.737  6.029 25.736 21.647  0.0000  0.0000  0.0000
 2016 312    39    30    762  6.5293  0.0599  4.3738  1.3906  0.4340 0.01380  3.749  6.026 24.268 20.420  0.0000  0.0000  0.0000
 2016 313    40    31    807  8.2262  0.0619  5.3833  1.8036  0.5340 0.01938  3.764  6.054 25.364 21.178  0.0000  0.0000  0.0000
 2016 314    41    32    848  7.5375  0.0652  4.9960  1.6101  0.5255 0.02015  3.779  6.068 25.478 21.159  0.0000  0.0000  0.0000
 2016 315    42    33    901  9.5786  0.0666  6.3131  2.1178  0.5411 0.02835  3.802  6.121 24.171 19.686  0.0000  0.0000  0.0000
 2016 316    43    34    955  9.6511  0.0684  6.4131  2.1241  0.5216 0.03144  3.827  6.173 23.645 18.790  0.0000  0.0000  0.0000
 2016 317    44    35   1011  9.8888  0.0723  6.5427  2.1697  0.5682 0.03463  3.849  6.223 24.597 19.169  0.0000  0.0000  0.0000
 2016 318    45    36   1063  9.6304  0.0755  6.3787  2.0945  0.5821 0.03540  3.868  6.262 25.028 19.163  0.0000  0.0000  0.0000
 2016 319    46    37   1083  4.6743  0.0960  3.4262  0.8225  0.4256 0.01808  3.865  6.190 21.253 19.322  4.5610  4.6529 57.8408
 2016 320    47    38   1121  7.5962  0.0841  4.9861  1.6908  0.4092 0.02832  3.865  6.180 20.003 16.652  4.5331  4.3181 58.3501
 2016 321    48    39   1181 10.7756  0.0864  7.1254  2.4001  0.5390 0.04606  3.883  6.229 22.189 17.317  4.5280  4.2910 58.4092
 2016 322    49    40   1247 11.8665  0.0883  7.8575  2.6513  0.5677 0.05304  3.904  6.293 22.397 16.886  4.5236  4.2374 58.4900
 2016 323    50    41   1310 11.4894  0.1034  7.6715  2.4803  0.6729 0.05120  3.921  6.324 23.695 18.864  4.5343  4.3734 58.2873
 2016 324    51    42   1371 11.3290  0.1099  7.5508  2.4536  0.6609 0.05251  3.935  6.346 23.170 18.477  4.5368  4.4174 58.2273
 2016 325    52    43   1448 13.2101  0.0915  8.7272  3.0579  0.4339 0.07064  3.958  6.439 17.470 13.286  4.5332  4.1715 58.4962
 2016 326    53    44   1475 12.4974  0.0831  8.2937  2.8937  0.3851 0.07053  3.980  6.530 17.461 11.458  4.5355  4.8684 57.8252
 2016 327    54    45   1550 12.9111  0.0993  8.5816  2.9292  0.5094 0.07424  3.998  6.602 20.284 13.679  4.5314  4.5673 58.1448
 2016 328    55    46   1606 10.6936  0.1287  7.2256  2.2419  0.7056 0.05983  4.006  6.605 24.007 18.113  4.5322  4.5397 58.1606
 2016 329    56    47   1590 10.9827  0.1487  7.3548  2.2636  0.8533 0.06268  4.013  6.592 25.020 20.308  4.5542  4.4318 58.4305
 2016 330    57    48   1651 12.1839  0.1545  8.0500  2.5417  0.9589 0.07433  4.022  6.593 25.603 21.364  4.5708  4.5424 58.1393
 2016 331    58    49   1705 11.2047  0.1585  7.5363  2.3230  0.8142 0.07198  4.029  6.583 23.740 19.570  4.5702  4.5738 58.0601
 2016 332    59    50   1770 12.4304  0.1488  8.2236  2.7206  0.7180 0.08498  4.038  6.608 22.335 17.194  4.5619  4.5161 58.1366
 2016 333    60    51   1771 10.1173  0.1661  6.9203  2.0578  0.7360 0.07007  4.041  6.587 22.707 18.340  4.5496  4.5781 58.1163
 2016 334    61    52   1831 12.5764  0.1724  8.2369  2.5989  1.0827 0.08709  4.047  6.584 26.185 21.955  4.5737  4.6683 57.8435
 2016 335    62    53   1869  9.2282  0.1903  6.2805  1.7355  0.9821 0.06081  4.038  6.520 25.150 22.164  4.5943  4.7401 57.6192
 2016 336    63    54   1874 11.5047  0.1909  7.5154  2.3352  1.1046 0.07804  4.034  6.488 25.798 22.410  4.6273  4.6250 57.9985
 2016 337    64    55   1948 14.4640  0.1768  9.5758  3.1372  0.8542 0.10975  4.046  6.516 22.040 18.084  4.6021  4.5718 58.0614
 2016 338    65    56   2024 14.6507  0.1741  9.7076  3.1743  0.8703 0.11317  4.058  6.551 22.923 17.661  4.5837  4.5148 58.1357
 2016 339    66    57   2092 14.2858  0.2018  9.4602  2.9291  1.1915 0.10348  4.065  6.547 25.920 21.465  4.5958  4.6208 57.8744
 2016 340    67    58   2062 11.2619  0.2141  7.4823  2.1582  1.2515 0.07264  4.055  6.490 27.168 23.116  4.6379  4.5110 58.2391
 2016 341    68    59   2079  6.1452  0.2216  4.4806  0.9199  0.9387 0.03510  4.029  6.368 25.247 21.966  4.6410  4.6343 57.8883
 2016 342    69    60   2151 15.0466  0.2130  9.4211  3.4123  1.0081 0.10672  4.022  6.366 22.698 19.184  4.6216  4.6340 57.8864
 2016 343    70    61   2120 12.0468  0.2046  8.3092  2.4786  0.7407 0.08553  4.021  6.337 19.922 16.610  4.5860  4.8711 57.5344
 2016 344    71    62   2175 10.9685  0.1665  7.3842  2.4209  0.4837 0.09113  4.021  6.342 15.508 13.134  4.5737  4.5293 57.9407
 2016 345    72    63   2261 15.9154  0.1875 10.4347  3.5889  0.7421 0.14543  4.035  6.407 20.025 14.976  4.5617  4.3648 58.1703
 2016 346    73    64   2316 11.8582  0.2245  8.1618  2.3656  0.9073 0.09078  4.030  6.369 22.817 18.237  4.5564  4.3858 58.1726
 2016 347    74    65   2262 12.5720  0.2493  8.4067  2.4799  1.2114 0.08745  4.020  6.313 25.257 21.380  4.5968  3.7801 59.3267
 2016 348    75    66   2329 14.4395  0.2306  9.4461  2.9617  1.2767 0.11044  4.017  6.290 25.897 21.453  4.6059  4.1006 58.7127
 2016 349    76    67   2394 14.4247  0.2492  9.6714  2.8950  1.2328 0.10048  4.010  6.244 24.486 20.978  4.6073  4.3023 58.3444
 2016 350    77    68   2344 15.6212  0.2422 10.4032  3.3034  1.0482 0.10974  4.005  6.220 22.506 18.397  4.5783  4.2239 58.4330
 2016 351    78    69   2426 16.3474  0.2222 10.7216  3.5483  1.0262 0.13790  4.009  6.241 23.276 17.698  4.5653  4.2560 58.4120
 2016 352    79    70   2496 14.9240  0.2532 10.0033  2.9921  1.2887 0.10679  4.004  6.204 25.582 20.806  4.5757  4.4099 58.1413
 2016 353    80    71   2541 11.5518  0.2756  7.6981  2.1100  1.5075 0.06231  3.977  6.104 27.505 24.031  4.6136  4.5416 57.7393
 2016 354    81    72   2422 14.1713  0.2755  9.1188  2.8011  1.6324 0.08585  3.957  6.037 27.945 23.905  4.6604  4.2511 58.6002
 2016 355    82    73   2454  9.5246  0.2816  6.8239  1.6466  1.0721 0.05292  3.926  5.916 22.970 20.866  4.6468  4.4062 58.2793
 2016 356    83    74   2486  8.9783  0.2491  6.3827  1.7092  0.7276 0.04892  3.900  5.814 18.885 16.648  4.6191  4.3415 58.3644
 2016 357    84    75   2439 16.9402  0.2479 10.8150  3.7785  1.1020 0.12817  3.893  5.817 23.076 18.133  4.5778  4.2413 58.5180
 2016 358    85    76   2522 16.8716  0.2338 11.2101  3.5281  1.1976 0.12294  3.890  5.805 24.234 19.224  4.5724  4.3553 58.3316
 2016 359    86    77   2597 16.1394  0.2528 10.6961  3.2638  1.4124 0.10192  3.879  5.761 26.177 21.234  4.5846  4.4916 58.0521
 2016 360    87    78   2670 15.5249  0.2746 10.2707  3.0711  1.5478 0.07627  3.856  5.679 26.627 22.551  4.6062  4.6094 57.7514
 2016 361    88    79   2483 15.4599  0.2869 10.1623  3.0641  1.5897 0.08381  3.834  5.607 26.691 22.715  4.6346  4.3999 58.3064
 2016 362    89    80   2551 15.4666  0.2636 10.2106  3.0869  1.4756 0.08953  3.815  5.543 26.466 22.289  4.6411  4.5331 57.9742
 2016 363    90    81   2621 16.3170  0.2702 10.7128  3.3091  1.4991 0.10202  3.800  5.497 26.457 21.945  4.6426  4.6197 57.7709
 2016 364    91    82   2513 16.9676  0.2790 11.2627  3.5424  1.2709 0.11168  3.789  5.462 23.769 19.591  4.6068  4.5491 57.7891
 2016 365    92    83   2601 15.7089  0.1622  9.8992  3.8282  0.4222 0.20908  3.813  5.605 13.366  9.654  4.6052  4.2141 58.1201
 2016 366    93    84   2697 16.8643  0.1936 11.0186  3.8366  0.7084 0.20985  3.838  5.719 19.593 12.102  4.5941  3.9605 58.4253
 2017 001    94    85   2772 16.0028  0.2665 10.7701  3.2503  1.2502 0.12645  3.831  5.693 24.749 19.097  4.5859  4.1027 58.3135
 2017 002    95    86   2671 16.1220  0.2967 10.6303  3.1805  1.6395 0.10870  3.815  5.635 27.103 22.486  4.6188  3.6468 59.0878
 2017 003    96    87   2730 14.7983  0.2896  9.9032  2.8600  1.5105 0.07698  3.784  5.536 25.935 22.321  4.6300  3.9743 58.5414
 2017 004    97    88   2806 16.4010  0.2705 10.8839  3.5210  1.0103 0.13224  3.774  5.517 21.081 16.897  4.6084  4.0099 58.5538
 2017 005    98    89   2700 17.3280  0.2833 11.6435  3.6733  1.0588 0.12712  3.763  5.489 21.126 17.007  4.5688  3.8399 58.5372
 2017 006    99    90   2793 18.1122  0.2441 11.7775  3.9612  1.1155 0.18084  3.767  5.525 22.868 17.206  4.5561  3.9453 58.5294
 2017 007   100    91   2808  5.1649  0.1040  3.7218  0.8963  0.4930 0.02069  3.762  5.478 17.964 11.965  4.5531  3.7406 58.7600
 2017 008   101    92   2894 14.4632  0.1446  8.5028  3.8096  0.2749 0.22719  3.783  5.635  9.973  5.749  4.5559  3.5761 58.9089
 2017 009   102    93   2869 18.2152  0.2111 12.1645  4.1200  0.5916 0.26053  3.819  5.771 16.103 10.468  4.5585  4.5678 57.9373
 2017 010   103    94   2960 16.8904  0.2497 11.4231  3.6556  0.7900 0.20401  3.830  5.816 18.569 13.838  4.5482  4.2787 58.2911
 2017 011   104    95   3043 17.4424  0.2912 11.7328  3.6824  1.0783 0.14414  3.817  5.784 21.549 16.614  4.5406  4.2360 58.3821
 2017 012   105    96   2943 19.9330  0.3158 13.2211  4.2033  1.3860 0.13847  3.801  5.738 23.671 18.600  4.5421  4.1660 58.4575
 2017 013   106    97   2996 14.3717  0.3327 10.1635  2.6841  1.2765 0.04384  3.757  5.586 22.797 19.705  4.5503  4.3195 58.2492
 2017 014   107    98   3054 15.4790  0.3289 10.4528  3.0955  1.3537 0.04217  3.710  5.443 23.881 19.779  4.5561  4.4195 58.1114
 2017 015   108    99   3121 15.1250  0.3346 10.3324  3.0138  1.2854 0.03868  3.663  5.299 23.089 19.153  4.5563  4.4668 58.0611
 2017 016   109   100   2853 14.6218  0.3387  9.9243  2.9033  1.3347 0.03426  3.614  5.158 23.944 19.433  4.5599  4.2777 58.2999
 2017 017   110   101   2932 18.0779  0.2858 11.9878  3.7237  1.4685 0.03782  3.566  5.022 24.908 20.327  4.5680  4.4194 58.0861
 2017 018   111   102   3020 18.4706  0.2886 12.3963  3.8628  1.2909 0.03544  3.518  4.892 23.329 18.443  4.5619  4.4382 58.0929
 2017 019   112   103   2813 19.3700  0.2953 12.7251  4.1337  1.3894 0.09387  3.491  4.831 24.345 18.646  4.5560  4.3902 58.1128
 2017 020   113   104   2893 17.2346  0.2739 11.7066  3.4669  1.3522 0.02640  3.443  4.691 24.462 19.603  4.5589  4.4599 58.0301
 2017 021   114   105   2985 19.4205  0.2939 12.8491  4.0002  1.6023 0.04536  3.399  4.572 25.531 20.939  4.5699  4.5472 57.8777
 2017 022   115   106   3014  9.7878  0.3093  6.7674  1.6588  1.4445 0.01088  3.347  4.416 25.611 22.469  4.5908  4.6362 57.6609
 2017 023   116   107   2714 17.1347  0.3109 11.3274  3.7171  1.1216 0.01841  3.294  4.273 19.465 17.572  4.5540  5.1311 56.5164
 2017 024   117   108   2830 22.0577  0.1976 14.3429  5.0004  0.9451 0.15109  3.291  4.300 19.074 15.014  4.5437  4.8015 57.1054
 2017 025   118   109   2938 20.8673  0.2233 13.8079  4.5544  1.1206 0.11604  3.275  4.283 21.952 16.332  4.5370  4.6345 57.4620
 2017 026   119   110   2710 14.3405  0.2839  9.8663  2.7575  1.3721 0.01661  3.222  4.129 23.490 20.610  4.5641  4.5884 57.4701
 2017 027   120   111   2787 15.5340  0.2178 10.4844  3.3512  0.8354 0.01786  3.171  4.004 18.095 15.552  4.5500  4.3889 57.8622
 2017 028   121   112   2861 13.5476  0.1867  8.8627  3.1444  0.4872 0.11426  3.159  4.022 13.539 11.062  4.5504  4.1181 58.1671
 2017 029   122   113   2904  8.3884  0.1894  5.7625  1.8463  0.3923 0.03311  3.117  3.955 12.802 10.256  4.5526  3.8943 58.4028
 2017 030   123   114   2764 22.1986  0.2010 14.1672  5.2952  0.6320 0.30229  3.177  4.176 15.191 10.910  4.5535  5.5077 56.5985
 2017 031   124   115   2883 21.5004  0.1826 14.0465  4.9321  0.7431 0.24980  3.215  4.317 18.206 11.881  4.5504  4.9686 57.2334
 2017 032   125   116   3009 22.0997  0.2203 14.3890  5.0163  0.9692 0.20476  3.229  4.394 20.657 14.056  4.5423  4.6356 57.6891
 2017 033   126   117   2822 20.7223  0.2710 13.9958  4.3942  1.2575 0.02496  3.179  4.265 22.800 17.283  4.5347  4.7562 57.4378
 2017 034   127   118   2932 21.8976  0.2449 14.6227  4.6876  1.3128 0.02637  3.128  4.136 23.085 18.041  4.5344  4.6675 57.6508
 2017 035   128   119   3028 21.2935  0.2701 14.3194  4.5384  1.2794 0.02612  3.078  4.007 22.186 17.820  4.5334  4.5998 57.8038
 2017 036   129   120   3123 19.4852  0.2877 13.0967  4.1562  1.2361 0.02416  3.027  3.879 21.769 17.707  4.5323  4.5458 57.9217
 2017 037   130   121   2735 21.2753  0.2932 13.9333  4.6296  1.4496 0.02598  2.976  3.762 24.158 18.488  4.5365  4.5759 57.7727
 2017 038   131   122   2830 19.3924  0.2400 12.8661  4.0110  1.5387 0.02440  2.928  3.635 25.471 20.856  4.5549  4.6489 57.6625
 2017 039   132   123   2920 18.4228  0.2664 12.2843  3.8002  1.4719 0.02343  2.877  3.505 24.142 20.515  4.5638  4.6861 57.6177
 2017 040   133   124   2663 21.0855  0.2748 13.9186  4.5131  1.4457 0.02685  2.828  3.389 23.581 19.300  4.5625  4.7177 57.4096
 2017 041   134   125   2789 23.6524  0.1709 15.2432  5.3917  0.9969 0.22081  2.860  3.508 20.186 15.012  4.5530  4.5307 57.7173
 2017 042   135   126   2913 23.0007  0.2031 15.0592  5.0348  1.2809 0.14947  2.862  3.538 23.541 17.196  4.5471  4.4761 57.8629
 2017 043   136   127   3034 23.0776  0.2366 15.2722  5.0110  1.3300 0.07051  2.832  3.476 23.174 17.579  4.5431  4.4464 57.9643
 2017 044   137   128   2674 20.6648  0.2762 13.7008  4.3439  1.5576 0.02743  2.785  3.358 24.662 19.921  4.5608  4.1506 58.2806
 2017 045   138   129   2759 18.0029  0.1914 11.9557  3.7289  1.3703 0.02419  2.737  3.236 24.213 20.088  4.5670  4.3260 58.0848
 2017 046   139   130   2841 17.5078  0.2197 11.5485  3.6138  1.4735 0.02361  2.688  3.111 24.109 21.047  4.5789  4.4663 57.8814
 2017 047   140   131   2657 23.9946  0.1896 15.2482  5.6672  0.8298 0.24365  2.737  3.267 17.706 12.988  4.5645  5.5777 56.4796
 2017 048   141   132   2782 22.5228  0.1516 14.6357  5.1361  0.8981 0.18463  2.759  3.355 20.853 13.099  4.5562  5.1096 57.0735
 2017 049   142   133   2847 13.5116  0.2040  9.2348  2.8011  0.9232 0.01926  2.709  3.242 21.540 16.297  4.5460  4.8565 57.4684
 2017 050   143   134   2949 20.6009  0.2333 13.3643  4.4529  1.5094 0.02820  2.664  3.125 24.437 20.088  4.5546  4.8351 57.4980
 2017 051   144   135   2614 23.0892  0.2446 14.9969  5.0085  1.6137 0.03250  2.622  3.024 25.309 19.782  4.5618  4.9158 57.3576
 2017 052   145   136   2684 15.3230  0.1794 10.1826  3.1559  1.2533 0.02191  2.575  2.905 23.895 19.988  4.5666  4.8719 57.4298
 2017 053   146   137   2717  9.1328  0.1902  6.3791  1.7373  0.8699 0.01385  2.526  2.785 20.747 17.668  4.5592  4.7712 57.6065
 2017 054   147   138   2542 16.0327  0.1910 10.3313  3.4644  1.1830 0.02268  2.481  2.683 23.617 18.595  4.5552  5.0050 57.1607
 2017 055   148   139   2647 20.7909  0.1643 13.3587  4.3635  1.7605 0.03138  2.438  2.585 26.545 22.871  4.5853  5.0014 57.0587
 2017 056   149   140   2743 21.0828  0.1924 13.7940  4.4970  1.5014 0.03085  2.396  2.488 24.107 20.534  4.5878  4.9601 57.1488
 2017 057   150   141   2874 24.4342  0.2043 15.5996  5.4927  1.4428 0.13829  2.406  2.526 23.635 18.775  4.5795  4.8768 57.3292
 2017 058   151   142   2492 20.8306  0.2362 13.3926  4.4255  1.7314 0.08721  2.391  2.503 26.852 21.432  4.6188  4.7685 57.8692
 2017 059   152   143   2585 19.3465  0.1517 12.3176  3.9986  1.7945 0.09393  2.379  2.486 28.116 23.561  4.6514  4.8417 57.4327
 2017 060   153   144   2691 22.0810  0.1765 13.9356  4.6918  1.8644 0.16877  2.401  2.553 27.779 22.942  4.6619  4.8808 57.2374
 2017 061   154   145   2498 22.8642  0.2093 14.8014  4.8684  1.7162 0.08155  2.381  2.516 25.713 21.499  4.6490  4.8718 57.2616
 2017 062   155   146   2622 24.3729  0.1929 15.9907  5.3467  1.2836 0.11881  2.379  2.526 22.339 18.156  4.6213  4.7671 57.4931
 2017 063   156   147   2748 24.5903  0.2088 15.7993  5.5762  1.1368 0.27362  2.446  2.719 21.902 16.078  4.6011  4.6173 57.7432
 2017 064   157   148   2862 22.3613  0.2638 14.9686  4.7865  1.3474 0.03586  2.402  2.624 22.404 18.704  4.5887  4.6019 57.8093
 2017 065   158   149   2471 20.2548  0.2809 13.4163  4.3977  1.2668 0.03242  2.358  2.534 22.536 18.100  4.5613  4.7917 57.3428
 2017 066   159   150   2580 21.1540  0.1791 13.8631  4.5913  1.2883 0.03777  2.317  2.456 24.275 18.717  4.5576  4.7304 57.5180
 2017 067   160   151   2681 20.2788  0.2125 13.2854  4.2958  1.5048 0.03324  2.275  2.370 25.733 20.660  4.5680  4.7558 57.4923
 2017 068   161   152   2420 20.6300  0.2346 13.3189  4.4049  1.6456 0.04136  2.238  2.298 26.765 21.339  4.5900  4.6927 57.6205
 2017 069   162   153   2542 23.8567  0.1884 15.5317  5.2019  1.5001 0.03881  2.198  2.220 24.296 20.302  4.5897  4.7207 57.5941
 2017 070   163   154   2667 24.0796  0.2140 15.5135  5.2254  1.7314 0.04706  2.165  2.159 26.689 21.465  4.5989  4.7654 57.4918
 2017 071   164   155   2738 15.3081  0.2572 10.0176  3.2067  1.3807 0.02543  2.119  2.068 24.441 21.108  4.6028  4.7918 57.4410
 2017 072   165   156   2345  9.9456  0.2698  6.6181  2.0175  1.0797 0.01694  2.070  1.970 22.508 19.699  4.5885  4.8609 57.2002
 2017 073   166   157   2465 23.6795  0.1237 14.8942  5.5015  1.0306 0.17268  2.103  2.063 18.825 16.646  4.5764  4.7358 57.4435
 2017 074   167   158   2606 23.6724  0.1226 14.5320  5.7906  0.5132 0.61205  2.339  2.672 14.088  9.587  4.5779  4.4482 57.7403
 2017 075   168   159   2522 22.6344  0.1627 14.3157  5.3807  0.5805 0.49968  2.501  3.103 16.066  9.662  4.5801  6.1852 55.9387
 2017 076   169   160   2664 24.5500  0.1739 15.4186  5.7429  0.8809 0.52478  2.653  3.503 19.860 13.416  4.5697  5.6921 56.5363
 2017 077   170   161   2805 26.1614  0.2314 16.5201  6.0043  1.1723 0.49284  2.774  3.825 21.910 15.955  4.5596  5.3939 56.9327

*DSSAT Cropping System Model Ver. 4.8.5.017 pre-release  JUN 28, 2025 01:30:15

*RUN   4        : Radiance                  CRGRO048 UFBA1701    1
 MODEL          : CRGRO048 - Strawberry
 EXPERIMENT     : UFBA1701 SR 2017 BALM STRAWBERRY VARIETY TRIAL
 DATA PATH      : /data/Strawberry/
 TREATMENT  1   : Radiance                  CRGRO048
  
@YEAR DOY   DAS   DAP   TWAD    PHAD    CMAD    CGRD    GRAD    MRAD    CHAD   CL%D   CS%D   TGNN   TGAV    GN%D    GL%D    GC%D
 2017 282     9     0    175  0.0000  0.0220  0.0143  0.0060  0.0000 0.00000  3.916  7.824 31.761 27.995  0.0000  0.0000  0.0000
 2017 283    10     1    175  0.1529  0.0128  0.0580  0.0074  0.1012 0.00000  3.876  7.721 31.427 27.802  0.0000  0.0000  0.0000
 2017 284    11     2    182  1.5377  0.0172  0.8880  0.3382  0.1603 0.00000  3.848  7.604 29.984 26.293  0.0000  0.0000  0.0000
 2017 285    12     3    191  1.6629  0.0183  1.0976  0.3202  0.1552 0.00000  3.821  7.496 29.233 24.883  0.0000  0.0000  0.0000
 2017 286    13     4    199  1.5568  0.0185  1.0050  0.2969  0.1706 0.00000  3.792  7.395 29.771 26.468  0.0000  0.0000  0.0000
 2017 287    14     5    207  1.5677  0.0197  1.0229  0.2975  0.1663 0.00000  3.764  7.295 29.111 25.706  0.0000  0.0000  0.0000
 2017 288    15     6    216  1.6252  0.0194  1.0475  0.3085  0.1816 0.00000  3.737  7.206 30.311 26.354  0.0000  0.0000  0.0000
 2017 289    16     7    226  1.8263  0.0200  1.1749  0.3509  0.1963 0.00000  3.710  7.127 30.260 26.409  0.0000  0.0000  0.0000
 2017 290    17     8    231  1.0343  0.0246  0.7213  0.1720  0.1277 0.00000  3.679  7.005 25.222 23.385  0.0000  0.0000  0.0000
 2017 291    18     9    239  1.6523  0.0229  1.0637  0.3263  0.1682 0.00000  3.654  6.914 27.786 24.392  0.0000  0.0000  0.0000
 2017 292    19    10    249  1.8728  0.0226  1.2217  0.3656  0.1877 0.00000  3.634  6.837 28.828 24.779  0.0000  0.0000  0.0000
 2017 293    20    11    259  1.9188  0.0237  1.2329  0.4011  0.1942 0.00000  3.632  6.747 28.337 24.879  0.0000  0.0000  0.0000
 2017 294    21    12    269  1.9347  0.0242  1.2502  0.4006  0.1980 0.00000  3.630  6.661 28.544 24.744  0.0000  0.0000  0.0000
 2017 295    22    13    278  1.8260  0.0233  1.1557  0.3711  0.2199 0.00000  3.625  6.581 29.993 26.300  0.0000  0.0000  0.0000
 2017 296    23    14    286  1.6782  0.0240  1.0647  0.3331  0.2174 0.00000  3.617  6.498 29.569 26.396  0.0000  0.0000  0.0000
 2017 297    24    15    297  2.1314  0.0266  1.4267  0.4463  0.1679 0.00000  3.621  6.420 25.043 21.286  0.0000  0.0000  0.0000
 2017 298    25    16    316  3.1849  0.0217  2.1136  0.7336  0.1234 0.00000  3.638  6.399 19.819 15.308  0.0000  0.0000  0.0000
 2017 299    26    17    336  3.4614  0.0225  2.3204  0.7893  0.1335 0.00000  3.656  6.383 20.289 15.196  0.0000  0.0000  0.0000
 2017 300    27    18    356  3.5256  0.0263  2.3577  0.7810  0.1873 0.00000  3.670  6.351 23.894 18.290  0.0000  0.0000  0.0000
 2017 301    28    19    365  1.7213  0.0313  1.2269  0.3216  0.1592 0.00000  3.666  6.261 23.963 19.944  0.0000  0.0000  0.0000
 2017 302    29    20    387  3.8744  0.0230  2.5109  0.9284  0.1225 0.00000  3.672  6.253 17.229 13.522  0.0000  0.0000  0.0000
 2017 303    30    21    414  4.3372  0.0231  2.9058  1.0081  0.1307 0.00000  3.687  6.256 17.849 12.945  0.0000  0.0000  0.0000
 2017 304    31    22    440  4.4801  0.0267  2.9942  1.0271  0.1714 0.00000  3.697  6.248 20.888 14.651  0.0000  0.0000  0.0000
 2017 305    32    23    465  4.3245  0.0349  2.9194  0.9414  0.2441 0.00000  3.705  6.208 23.836 18.768  0.0000  0.0000  0.0000
 2017 306    33    24    491  4.7449  0.0367  3.1445  1.0411  0.2954 0.00000  3.711  6.169 25.452 20.080  0.0000  0.0000  0.0000
 2017 307    34    25    514  4.2646  0.0413  2.8439  0.9034  0.3170 0.00000  3.710  6.114 25.888 21.478  0.0000  0.0000  0.0000
 2017 308    35    26    542  5.1500  0.0425  3.3877  1.1173  0.3576 0.00121  3.711  6.078 26.022 21.513  0.0000  0.0000  0.0000
 2017 309    36    27    573  5.5167  0.0439  3.6662  1.1970  0.3508 0.00304  3.719  6.056 25.076 20.502  0.0000  0.0000  0.0000
 2017 310    37    28    596  4.5106  0.0496  2.9527  0.9379  0.4114 0.00367  3.711  6.008 26.793 23.655  0.0000  0.0000  0.0000
 2017 311    38    29    628  6.0176  0.0485  3.9077  1.3036  0.4560 0.00657  3.715  5.998 27.079 22.716  0.0000  0.0000  0.0000
 2017 312    39    30    663  6.3455  0.0504  4.1566  1.3665  0.4668 0.00884  3.724  5.998 26.853 22.290  0.0000  0.0000  0.0000
 2017 313    40    31    697  6.3091  0.0523  4.1197  1.3476  0.4952 0.01055  3.733  5.999 27.507 22.709  0.0000  0.0000  0.0000
 2017 314    41    32    708  2.6942  0.0590  2.0034  0.4610  0.2603 0.00619  3.730  5.925 20.888 18.984  0.0000  0.0000  0.0000
 2017 315    42    33    743  6.6954  0.0549  4.1772  1.5314  0.4613 0.01481  3.732  5.939 25.732 21.009  0.0000  0.0000  0.0000
 2017 316    43    34    758  3.5498  0.0675  2.4721  0.6585  0.3720 0.00982  3.721  5.874 23.141 21.681  0.0000  0.0000  0.0000
 2017 317    44    35    794  6.8240  0.0624  4.2980  1.5016  0.5621 0.01895  3.724  5.888 26.598 23.205  0.0000  0.0000  0.0000
 2017 318    45    36    835  7.6667  0.0644  5.0685  1.6467  0.5211 0.02467  3.744  5.924 24.832 21.171  0.0000  0.0000  0.0000
 2017 319    46    37    884  8.8290  0.0636  5.8548  1.9497  0.4712 0.03119  3.773  5.988 23.084 18.680  0.0000  0.0000  0.0000
 2017 320    47    38    930  8.4777  0.0719  5.6950  1.8270  0.4842 0.03231  3.798  6.030 22.662 19.073  0.0000  0.0000  0.0000
 2017 321    48    39    982  9.3070  0.0696  6.1573  2.0650  0.4845 0.03786  3.823  6.095 22.928 17.955  0.0000  0.0000  0.0000
 2017 322    49    40   1033  9.2834  0.0736  6.1655  2.0324  0.5200 0.04021  3.847  6.152 23.757 18.348  4.5376  4.4616 58.1785
 2017 323    50    41   1074  7.8004  0.0810  5.2440  1.6427  0.5210 0.03559  3.862  6.170 24.212 19.077  4.5469  4.5425 58.0392
 2017 324    51    42   1130  9.8681  0.0720  6.4536  2.2491  0.4518 0.04662  3.879  6.241 21.973 15.625  4.5332  4.2849 58.3827
 2017 325    52    43   1149  4.6848  0.0993  3.4326  0.8243  0.4302 0.02306  3.877  6.179 21.745 18.844  4.5406  4.4132 58.2081
 2017 326    53    44   1194  9.0046  0.1001  5.7513  1.9748  0.6696 0.04399  3.883  6.190 24.926 20.846  4.5645  4.5731 57.8987
 2017 327    54    45   1215  5.1386  0.1169  3.6438  0.9078  0.5653 0.02649  3.874  6.117 23.135 21.382  4.5821  4.6683 57.6934
 2017 328    55    46   1237  5.4077  0.1083  3.7770  1.0437  0.4457 0.02878  3.873  6.062 20.112 18.327  4.5724  4.6252 57.7975
 2017 329    56    47   1299 11.1931  0.0920  7.1392  2.6065  0.5260 0.06557  3.890  6.147 21.470 16.186  4.5632  4.5280 57.9521
 2017 330    57    48   1358 10.8639  0.1067  7.3003  2.3536  0.5815 0.06897  3.916  6.211 21.741 17.402  4.5565  4.4863 58.0355
 2017 331    58    49   1359 11.0088  0.1060  7.2980  2.4341  0.5688 0.07289  3.938  6.281 21.858 16.580  4.5352  5.4521 56.4400
 2017 332    59    50   1416 10.9530  0.1208  7.2713  2.2849  0.8241 0.07574  3.960  6.325 25.784 21.045  4.5554  5.3042 56.6577
 2017 333    60    51   1469 10.7560  0.1350  7.0961  2.2164  0.9035 0.07483  3.975  6.348 25.921 22.226  4.5816  5.2184 56.7221
 2017 334    61    52   1505 11.2989  0.1381  7.4600  2.3661  0.8649 0.08187  3.992  6.380 25.168 21.072  4.5986  5.4455 56.3499
 2017 335    62    53   1566 11.9212  0.1354  7.8601  2.5396  0.8281 0.09026  4.011  6.426 24.786 19.921  4.5919  5.2226 56.7618
 2017 336    63    54   1626 11.6780  0.1389  7.7164  2.4683  0.8396 0.09059  4.028  6.466 25.169 19.803  4.5872  5.0888 57.0109
 2017 337    64    55   1673  9.7983  0.1516  6.5997  1.9824  0.7963 0.07681  4.036  6.462 24.602 19.942  4.5850  5.0058 57.1635
 2017 338    65    56   1686 10.5872  0.1634  7.0728  2.1773  0.8306 0.08346  4.042  6.460 23.899 20.046  4.5836  5.0928 57.0062
 2017 339    66    57   1748 12.5114  0.1651  8.1924  2.6216  0.9971 0.10339  4.055  6.488 25.546 21.291  4.5931  5.0452 57.0562
 2017 340    67    58   1805 11.8432  0.1701  7.8424  2.4312  0.9805 0.09850  4.066  6.501 25.633 21.045  4.5974  5.0099 57.1045
 2017 341    68    59   1798  8.0652  0.1922  5.5888  1.4685  0.8828 0.06204  4.054  6.433 24.398 21.519  4.6135  5.0972 57.0726
 2017 342    69    60   1837  9.3864  0.1842  6.0643  1.8469  1.0782 0.07704  4.044  6.394 26.724 23.411  4.6466  5.0649 56.8971
 2017 343    70    61   1850  3.9873  0.1347  2.8590  0.7449  0.3576 0.03381  4.023  6.331 18.204 12.952  4.6279  4.7450 57.3334
 2017 344    71    62   1921 11.9248  0.0885  7.4116  2.9899  0.2606 0.11686  4.037  6.448 12.247  7.866  4.6301  4.4169 57.6471
 2017 345    72    63   1965 12.1519  0.1033  8.1109  2.8047  0.3221 0.12684  4.064  6.557 14.214  8.831  4.6283  7.1328 54.8832
 2017 346    73    64   2037 12.7282  0.1355  8.4942  2.8659  0.4909 0.13392  4.084  6.641 18.165 11.913  4.6105  6.2361 55.9023
 2017 347    74    65   2117 13.7108  0.1210  9.0451  3.1989  0.3737 0.14699  4.109  6.748 14.525  9.646  4.6082  5.6275 56.5310
 2017 348    75    66   2166 11.9181  0.1523  8.0012  2.6368  0.5297 0.12760  4.120  6.799 18.907 12.257  4.5924  5.7049 56.4399
 2017 349    76    67   2231 13.2582  0.2097  9.0460  2.7541  0.8271 0.13791  4.132  6.815 21.459 17.116  4.5746  5.3396 56.9538
 2017 350    77    68   2303 14.4366  0.2145  9.6385  3.0969  0.8617 0.14964  4.143  6.841 21.568 16.925  4.5624  5.0883 57.3062
 2017 351    78    69   2371 14.2052  0.2272  9.4695  2.9725  1.0142 0.14507  4.151  6.851 23.629 18.452  4.5580  4.9657 57.4749
 2017 352    79    70   2373 13.8668  0.2528  9.2348  2.7766  1.2574 0.13976  4.155  6.837 25.514 21.105  4.5854  5.0289 57.6272
 2017 353    80    71   2435 13.7952  0.2530  9.0996  2.7634  1.3061 0.14531  4.158  6.823 25.956 21.614  4.5982  5.0018 57.4935
 2017 354    81    72   2493 13.0418  0.2633  8.7575  2.6128  1.1245 0.13857  4.157  6.797 23.772 19.932  4.5935  4.9427 57.5279
 2017 355    82    73   2485 12.3797  0.2807  8.3059  2.4052  1.2366 0.12181  4.147  6.743 24.510 21.204  4.6042  4.9776 57.7190
 2017 356    83    74   2541 13.1739  0.2669  8.7736  2.6801  1.1005 0.13769  4.142  6.712 23.351 19.477  4.5945  4.9028 57.7360
 2017 357    84    75   2599 13.2270  0.2695  8.8527  2.6896  1.0818 0.13472  4.136  6.679 23.182 19.041  4.5841  4.8267 57.7851
 2017 358    85    76   2666 14.7070  0.2734  9.6798  3.0530  1.1954 0.14866  4.132  6.661 24.145 19.469  4.5796  4.7915 57.7861
 2017 359    86    77   2640 15.9040  0.2720 10.5635  3.4214  0.9708 0.17119  4.136  6.669 20.673 16.832  4.5490  5.3258 57.0921
 2017 360    87    78   2687 10.7269  0.2597  7.4176  2.1405  0.8076 0.10663  4.120  6.613 20.789 16.179  4.5383  4.9450 57.5824
 2017 361    88    79   2754 14.8065  0.2866  9.7495  3.0696  1.2083 0.14746  4.113  6.585 23.969 19.325  4.5442  4.8715 57.6466
 2017 362    89    80   2710 14.2328  0.3058  9.7357  2.8447  1.1097 0.12292  4.099  6.523 21.914 18.606  4.5444  4.9760 57.5184
 2017 363    90    81   2763 11.6092  0.2567  7.9759  2.4256  0.6751 0.11691  4.088  6.484 16.999 14.459  4.5358  4.6145 57.9581
 2017 364    91    82   2840 14.8659  0.2378  9.6188  3.4264  0.6525 0.17682  4.087  6.519 17.375 12.728  4.5336  4.3131 58.2863
 2017 365    92    83   2928 16.4380  0.2453 10.8212  3.7061  0.7380 0.20128  4.095  6.572 18.741 12.923  4.5314  4.0809 58.5430
 2018 001    93    84   2928 16.5571  0.2453 10.8212  3.7061  0.7543 0.20128  4.095  6.572 18.741 12.923  4.5314  4.0809 58.5430

*DSSAT Cropping System Model Ver. 4.8.5.017 pre-release  JUN 28, 2025 01:30:23

*RUN   5        : Brilliance                CRGRO048 UFBA1701    2
 MODEL          : CRGRO048 - Strawberry
 EXPERIMENT     : UFBA1701 SR 2017 BALM STRAWBERRY VARIETY TRIAL
 DATA PATH      : /data/Strawberry/
 TREATMENT  2   : Brilliance                CRGRO048
  
@YEAR DOY   DAS   DAP   TWAD    PHAD    CMAD    CGRD    GRAD    MRAD    CHAD   CL%D   CS%D   TGNN   TGAV    GN%D    GL%D    GC%D
 2017 282     9     0    175  0.0000  0.0220  0.0143  0.0060  0.0000 0.00000  3.916  7.824 31.761 27.995  0.0000  0.0000  0.0000
 2017 283    10     1    175  0.1551  0.0129  0.0599  0.0077  0.1013 0.00000  3.876  7.720 31.427 27.802  0.0000  0.0000  0.0000
 2017 284    11     2    182  1.6330  0.0172  0.9414  0.3620  0.1651 0.00000  3.848  7.605 29.984 26.293  0.0000  0.0000  0.0000
 2017 285    12     3    192  1.7704  0.0184  1.1673  0.3434  0.1603 0.00000  3.821  7.499 29.233 24.883  0.0000  0.0000  0.0000
 2017 286    13     4    201  1.6430  0.0186  1.0608  0.3152  0.1755 0.00000  3.793  7.400 29.771 26.468  0.0000  0.0000  0.0000
 2017 287    14     5    210  1.6501  0.0199  1.0763  0.3150  0.1710 0.00000  3.764  7.301 29.111 25.706  0.0000  0.0000  0.0000
 2017 288    15     6    219  1.7104  0.0196  1.1024  0.3265  0.1870 0.00000  3.737  7.214 30.311 26.354  0.0000  0.0000  0.0000
 2017 289    16     7    229  1.9366  0.0203  1.2457  0.3742  0.2033 0.00000  3.710  7.136 30.260 26.409  0.0000  0.0000  0.0000
 2017 290    17     8    234  1.0680  0.0251  0.7443  0.1784  0.1304 0.00000  3.679  7.014 25.222 23.385  0.0000  0.0000  0.0000
 2017 291    18     9    243  1.7268  0.0233  1.1115  0.3421  0.1730 0.00000  3.654  6.924 27.786 24.392  0.0000  0.0000  0.0000
 2017 292    19    10    254  1.9777  0.0231  1.2896  0.3876  0.1942 0.00000  3.634  6.849 28.828 24.779  0.0000  0.0000  0.0000
 2017 293    20    11    264  2.0231  0.0243  1.2995  0.4248  0.2010 0.00000  3.633  6.760 28.337 24.879  0.0000  0.0000  0.0000
 2017 294    21    12    275  2.0325  0.0247  1.3130  0.4225  0.2047 0.00000  3.633  6.674 28.544 24.744  0.0000  0.0000  0.0000
 2017 295    22    13    284  1.9152  0.0239  1.2123  0.3908  0.2272 0.00000  3.629  6.595 29.993 26.300  0.0000  0.0000  0.0000
 2017 296    23    14    293  1.7566  0.0246  1.1145  0.3502  0.2244 0.00000  3.621  6.513 29.569 26.396  0.0000  0.0000  0.0000
 2017 297    24    15    305  2.2461  0.0273  1.5016  0.4723  0.1742 0.00000  3.626  6.435 25.043 21.286  0.0000  0.0000  0.0000
 2017 298    25    16    325  3.4751  0.0223  2.3015  0.8040  0.1309 0.00000  3.644  6.418 19.819 15.308  0.0000  0.0000  0.0000
 2017 299    26    17    348  3.8086  0.0232  2.5489  0.8721  0.1425 0.00000  3.664  6.406 20.289 15.196  0.0000  0.0000  0.0000
 2017 300    27    18    370  3.8726  0.0273  2.5857  0.8621  0.2000 0.00000  3.680  6.379 23.894 18.290  0.0000  0.0000  0.0000
 2017 301    28    19    379  1.8241  0.0327  1.2990  0.3423  0.1665 0.00000  3.676  6.288 23.963 19.944  0.0000  0.0000  0.0000
 2017 302    29    20    404  4.2401  0.0240  2.7445  1.0188  0.1309 0.00000  3.682  6.283 17.229 13.522  0.0000  0.0000  0.0000
 2017 303    30    21    433  4.8108  0.0242  3.2191  1.1215  0.1410 0.00000  3.698  6.290 17.849 12.945  0.0000  0.0000  0.0000
 2017 304    31    22    463  4.9658  0.0281  3.3156  1.1420  0.1851 0.00000  3.708  6.285 20.888 14.651  0.0000  0.0000  0.0000
 2017 305    32    23    490  4.7382  0.0369  3.1950  1.0354  0.2622 0.00000  3.716  6.246 23.836 18.768  0.0000  0.0000  0.0000
 2017 306    33    24    519  5.2306  0.0389  3.4628  1.1522  0.3188 0.00000  3.722  6.210 25.452 20.080  0.0000  0.0000  0.0000
 2017 307    34    25    544  4.6682  0.0439  3.1109  0.9927  0.3408 0.00000  3.721  6.155 25.888 21.478  0.0000  0.0000  0.0000
 2017 308    35    26    576  5.6962  0.0453  3.7436  1.2410  0.3873 0.00133  3.722  6.121 26.022 21.513  0.0000  0.0000  0.0000
 2017 309    36    27    610  6.1225  0.0469  4.0646  1.3339  0.3812 0.00337  3.730  6.101 25.076 20.502  0.0000  0.0000  0.0000
 2017 310    37    28    635  4.9566  0.0531  3.2442  1.0345  0.4444 0.00404  3.722  6.054 26.793 23.655  0.0000  0.0000  0.0000
 2017 311    38    29    672  6.7115  0.0520  4.3551  1.4602  0.4977 0.00732  3.727  6.048 27.079 22.716  0.0000  0.0000  0.0000
 2017 312    39    30    711  7.0948  0.0543  4.6444  1.5343  0.5109 0.00987  3.737  6.051 26.853 22.290  0.0000  0.0000  0.0000
 2017 313    40    31    749  7.0466  0.0564  4.5992  1.5112  0.5421 0.01178  3.746  6.054 27.507 22.709  0.0000  0.0000  0.0000
 2017 314    41    32    761  2.9448  0.0639  2.1878  0.5064  0.2812 0.00676  3.742  5.979 20.888 18.984  0.0000  0.0000  0.0000
 2017 315    42    33    801  7.4843  0.0595  4.6668  1.7175  0.5058 0.01652  3.744  5.996 25.732 21.009  0.0000  0.0000  0.0000
 2017 316    43    34    818  3.8967  0.0732  2.7128  0.7253  0.4034 0.01066  3.733  5.930 23.141 21.681  0.0000  0.0000  0.0000
 2017 317    44    35    858  7.6206  0.0677  4.7984  1.6823  0.6166 0.02099  3.736  5.945 26.598 23.205  0.0000  0.0000  0.0000
 2017 318    45    36    904  8.6018  0.0701  5.6828  1.8537  0.5739 0.02739  3.757  5.983 24.832 21.171  0.0000  0.0000  0.0000
 2017 319    46    37    960  9.9949  0.0694  6.6220  2.2141  0.5224 0.03489  3.787  6.051 23.084 18.680  0.0000  0.0000  0.0000
 2017 320    47    38   1012  9.5346  0.0788  6.4033  2.0583  0.5352 0.03517  3.811  6.091 22.662 19.073  0.0000  0.0000  0.0000
 2017 321    48    39   1071 10.5224  0.0764  6.9592  2.3391  0.5377 0.04169  3.836  6.156 22.928 17.955  0.0000  0.0000  0.0000
 2017 322    49    40   1129 10.4633  0.0810  6.9482  2.2945  0.5764 0.04390  3.859  6.211 23.757 18.348  4.5376  4.4618 58.1781
 2017 323    50    41   1174  8.6880  0.0894  5.8434  1.8300  0.5740 0.03761  3.873  6.223 24.212 19.077  4.5470  4.5426 58.0390
 2017 324    51    42   1237 11.1685  0.0796  7.3035  2.5486  0.5024 0.05079  3.890  6.293 21.973 15.625  4.5332  4.2844 58.3834
 2017 325    52    43   1259  5.1471  0.1099  3.7814  0.9004  0.4715 0.02138  3.884  6.217 21.745 18.844  4.5406  4.4133 58.2080
 2017 326    53    44   1309 10.0226  0.1109  6.4062  2.1978  0.7386 0.04453  3.887  6.218 24.926 20.846  4.5646  4.5735 57.8978
 2017 327    54    45   1332  5.6219  0.1297  3.9951  0.9886  0.6192 0.02433  3.875  6.131 23.135 21.382  4.5822  4.6688 57.6925
 2017 328    55    46   1356  5.8996  0.1203  4.1233  1.1368  0.4877 0.02737  3.871  6.065 20.112 18.327  4.5724  4.6255 57.7969
 2017 329    56    47   1425 12.5534  0.1022  7.9969  2.9304  0.5830 0.07046  3.888  6.152 21.470 16.186  4.5632  4.5282 57.9517
 2017 330    57    48   1492 12.0946  0.1186  8.1175  2.6266  0.6424 0.07285  3.913  6.214 21.741 17.402  4.5565  4.4865 58.0352
 2017 331    58    49   1455 12.2583  0.1179  8.1142  2.7184  0.6287 0.07883  3.936  6.286 21.858 16.580  4.5353  5.4504 56.4426
 2017 332    59    50   1518 12.1718  0.1314  8.0747  2.5494  0.8975 0.08041  3.958  6.329 25.784 21.045  4.5554  5.3025 56.6603
 2017 333    60    51   1577 11.9096  0.1470  7.8559  2.4625  0.9826 0.07808  3.972  6.347 25.921 22.226  4.5817  5.2169 56.7242
 2017 334    61    52   1605 12.5241  0.1505  8.2651  2.6311  0.9419 0.08375  3.987  6.372 25.168 21.072  4.5987  5.4404 56.3577
 2017 335    62    53   1673 13.2391  0.1466  8.7307  2.8275  0.8997 0.09229  4.004  6.411 24.786 19.921  4.5920  5.2187 56.7678
 2017 336    63    54   1740 12.9186  0.1507  8.5364  2.7378  0.9109 0.09205  4.019  6.444 25.169 19.803  4.5872  5.0859 57.0155
 2017 337    64    55   1791 10.6979  0.1648  7.1978  2.1718  0.8588 0.07421  4.023  6.428 24.602 19.942  4.5850  5.0036 57.1670
 2017 338    65    56   1780 11.5671  0.1777  7.7146  2.3885  0.8966 0.07996  4.026  6.412 23.899 20.046  4.5836  5.0896 57.0113
 2017 339    66    57   1849 13.8092  0.1776  9.0294  2.9099  1.0736 0.10214  4.036  6.432 25.546 21.291  4.5931  5.0429 57.0599
 2017 340    67    58   1912 12.9781  0.1834  8.5831  2.6781  1.0526 0.09611  4.044  6.435 25.633 21.045  4.5973  5.0083 57.1072
 2017 341    68    59   1881  8.6942  0.2075  6.0662  1.5727  0.9403 0.05356  4.028  6.350 24.398 21.519  4.6136  5.0957 57.0773
 2017 342    69    60   1924 10.1281  0.1949  6.5418  2.0039  1.1404 0.06933  4.014  6.296 26.724 23.411  4.6465  5.0640 56.9005
 2017 343    70    61   1938  4.2571  0.1428  3.0875  0.7849  0.3758 0.02867  3.990  6.224 18.204 12.952  4.6278  4.7446 57.3358
 2017 344    71    62   2020 13.7514  0.0938  8.5198  3.4645  0.2840 0.13119  4.009  6.361 12.247  7.866  4.6301  4.4168 57.6490
 2017 345    72    63   2055 13.8978  0.1101  9.2636  3.2200  0.3505 0.14026  4.040  6.486 14.214  8.831  4.6283  7.1609 54.8578
 2017 346    73    64   2136 14.0889  0.1430  9.4082  3.1771  0.5255 0.13932  4.061  6.572 18.165 11.913  4.6104  6.2570 55.8838
 2017 347    74    65   2227 15.5863  0.1283 10.2703  3.6485  0.4055 0.16052  4.089  6.692 14.525  9.646  4.6081  5.6447 56.5159
 2017 348    75    66   2269 13.0711  0.1621  8.7831  2.8957  0.5660 0.13098  4.101  6.742 18.907 12.257  4.5923  5.7236 56.4233
 2017 349    76    67   2340 14.4381  0.2226  9.8600  3.0047  0.8799 0.13119  4.109  6.744 21.459 17.116  4.5746  5.3533 56.9418
 2017 350    77    68   2418 15.8174  0.2277 10.5696  3.4005  0.9200 0.14498  4.117  6.760 21.568 16.925  4.5623  5.0988 57.2971
 2017 351    78    69   2492 15.5242  0.2414 10.3206  3.2725  1.0819 0.13861  4.121  6.760 23.629 18.452  4.5580  4.9743 57.4673
 2017 352    79    70   2458 15.1035  0.2687 10.0215  3.0550  1.3396 0.13398  4.122  6.737 25.514 21.105  4.5853  5.0441 57.6145
 2017 353    80    71   2526 14.9985  0.2633  9.8650  3.0343  1.3782 0.13500  4.121  6.711 25.956 21.614  4.5980  5.0132 57.4846
 2017 354    81    72   2590 14.0721  0.2745  9.4480  2.8346  1.1832 0.12995  4.117  6.675 23.772 19.932  4.5934  4.9517 57.5210
 2017 355    82    73   2547 13.3057  0.2932  9.0206  2.5639  1.2996 0.10200  4.102  6.600 24.510 21.204  4.6042  4.9935 57.7117
 2017 356    83    74   2607 14.1641  0.2748  9.5127  2.8667  1.1478 0.11448  4.091  6.546 23.351 19.477  4.5945  4.9148 57.7306
 2017 357    84    75   2670 14.1905  0.2776  9.5640  2.8769  1.1278 0.11615  4.081  6.497 23.182 19.041  4.5842  4.8359 57.7809
 2017 358    85    76   2743 15.8768  0.2820 10.5317  3.2857  1.2511 0.12469  4.072  6.458 24.145 19.469  4.5796  4.7984 57.7829
 2017 359    86    77   2657 17.2237  0.2811 11.5083  3.6986  1.0189 0.14419  4.068  6.444 20.673 16.832  4.5490  5.3374 57.0874
 2017 360    87    78   2709 11.3640  0.2629  7.9967  2.2315  0.8256 0.06498  4.042  6.351 20.789 16.179  4.5383  4.9525 57.5801
 2017 361    88    79   2782 15.8584  0.2910 10.5990  3.2542  1.2458 0.09959  4.023  6.283 23.969 19.325  4.5442  4.8770 57.6450
 2017 362    89    80   2669 15.1237  0.3113 10.4690  3.0006  1.1413 0.07727  3.999  6.184 21.914 18.606  4.5444  4.9811 57.5188
 2017 363    90    81   2725 12.2155  0.2549  8.5357  2.5177  0.6788 0.06739  3.976  6.105 16.999 14.459  4.5358  4.6201 57.9563
 2017 364    91    82   2809 15.8055  0.2365 10.3303  3.6227  0.6616 0.14322  3.970  6.123 17.375 12.728  4.5336  4.3196 58.2829
 2017 365    92    83   2904 17.7177  0.2448 11.6592  4.0205  0.7545 0.17297  3.974  6.169 18.741 12.923  4.5314  4.0878 58.5385
 2018 001    93    84   2904 17.8289  0.2448 11.6592  4.0205  0.7719 0.17297  3.974  6.169 18.741 12.923  4.5314  4.0878 58.5385

*DSSAT Cropping System Model Ver. 4.8.5.017 pre-release  JUN 28, 2025 01:30:37

*RUN   6        : Radiance                  CRGRO048 UFWM1401    1
 MODEL          : CRGRO048 - Strawberry
 EXPERIMENT     : UFWM1401 SR 2014 WIMAUMA STRAWBERRY GROWTH AND YIELD ANALYSIS
 DATA PATH      : /data/Strawberry/
 TREATMENT  1   : Radiance                  CRGRO048
  
@YEAR DOY   DAS   DAP   TWAD    PHAD    CMAD    CGRD    GRAD    MRAD    CHAD   CL%D   CS%D   TGNN   TGAV    GN%D    GL%D    GC%D
 2014 282     9     0    175  0.0000  0.0220  0.0143  0.0060  0.0000 0.00000  3.916  7.824 27.197 23.500  0.0000  0.0000  0.0000
 2014 283    10     1    175  0.1555  0.0149  0.0859  0.0110  0.0744 0.00000  3.872  7.704 27.393 23.315  0.0000  0.0000  0.0000
 2014 284    11     2    183  1.7705  0.0184  1.0484  0.3982  0.1443 0.00000  3.846  7.583 27.867 23.758  0.0000  0.0000  0.0000
 2014 285    12     3    194  1.8203  0.0194  1.2170  0.3555  0.1463 0.00000  3.820  7.474 27.433 23.466  0.0000  0.0000  0.0000
 2014 286    13     4    204  1.8517  0.0203  1.2288  0.3628  0.1543 0.00000  3.793  7.370 27.516 23.727  0.0000  0.0000  0.0000
 2014 287    14     5    208  0.9401  0.0224  0.6535  0.1563  0.1182 0.00000  3.762  7.239 25.913 23.655  0.0000  0.0000  0.0000
 2014 288    15     6    218  1.8208  0.0212  1.2209  0.3666  0.1199 0.00000  3.743  7.149 23.985 20.166  0.0000  0.0000  0.0000
 2014 289    16     7    230  2.1496  0.0215  1.4711  0.4298  0.1218 0.00000  3.727  7.076 22.959 19.109  0.0000  0.0000  0.0000
 2014 290    17     8    243  2.2216  0.0211  1.5166  0.4484  0.1214 0.00000  3.712  7.015 23.155 18.372  0.0000  0.0000  0.0000
 2014 291    18     9    256  2.2167  0.0217  1.5093  0.4532  0.1252 0.00000  3.702  6.952 23.461 18.336  0.0000  0.0000  0.0000
 2014 292    19    10    267  2.1330  0.0238  1.4573  0.4251  0.1398 0.00000  3.691  6.882 24.356 19.615  0.0000  0.0000  0.0000
 2014 293    20    11    278  2.0382  0.0254  1.3671  0.4313  0.1496 0.00000  3.697  6.791 24.897 20.436  0.0000  0.0000  0.0000
 2014 294    21    12    286  1.5755  0.0284  1.0677  0.3119  0.1556 0.00000  3.688  6.682 25.174 22.168  0.0000  0.0000  0.0000
 2014 295    22    13    299  2.3776  0.0278  1.5477  0.5145  0.1880 0.00000  3.684  6.598 25.731 22.106  0.0000  0.0000  0.0000
 2014 296    23    14    314  2.8485  0.0276  1.9022  0.6202  0.1771 0.00000  3.694  6.533 23.936 19.970  0.0000  0.0000  0.0000
 2014 297    24    15    331  3.0547  0.0283  2.0499  0.6683  0.1748 0.00000  3.705  6.475 23.048 19.119  0.0000  0.0000  0.0000
 2014 298    25    16    351  3.3873  0.0287  2.2687  0.7494  0.1797 0.00000  3.715  6.427 22.628 18.495  0.0000  0.0000  0.0000
 2014 299    26    17    372  3.6218  0.0264  2.4040  0.8180  0.1753 0.00000  3.723  6.397 22.952 17.068  0.0000  0.0000  0.0000
[...]
 2014 298    25    16    363  3.6739  0.0297  2.4568  0.8164  0.1903 0.00000  3.721  6.449 22.628 18.495  0.0000  0.0000  0.0000
 2014 299    26    17    386  3.9550  0.0274  2.6224  0.8966  0.1867 0.00000  3.730  6.422 22.952 17.068  0.0000  0.0000  0.0000
 2014 300    27    18    410  4.2073  0.0311  2.8075  0.9348  0.2234 0.00000  3.739  6.387 23.927 18.564  0.0000  0.0000  0.0000
 2014 301    28    19    435  4.3349  0.0346  2.8847  0.9511  0.2613 0.00000  3.745  6.343 24.885 20.007  0.0000  0.0000  0.0000
 2014 302    29    20    456  3.9342  0.0374  2.6275  0.8444  0.2702 0.00000  3.746  6.286 25.269 20.738  0.0000  0.0000  0.0000
 2014 303    30    21    477  3.8299  0.0401  2.5595  0.8165  0.2747 0.00000  3.743  6.220 24.869 20.890  0.0000  0.0000  0.0000
 2014 304    31    22    507  5.4264  0.0425  3.6136  1.2111  0.2841 0.00000  3.747  6.176 21.691 19.190  0.0000  0.0000  0.0000
 2014 305    32    23    543  5.8396  0.0284  3.9148  1.3650  0.1534 0.00074  3.760  6.187 15.274 12.398  0.0000  0.0000  0.0000
 2014 306    33    24    580  6.1451  0.0273  4.1133  1.4440  0.1526 0.00190  3.771  6.210 15.918 11.367  0.0000  0.0000  0.0000
 2014 307    34    25    618  6.2875  0.0350  4.2274  1.4466  0.2055 0.00329  3.779  6.220 18.701 13.437  0.0000  0.0000  0.0000
 2014 308    35    26    652  5.9792  0.0472  4.0536  1.3117  0.2974 0.00496  3.786  6.202 22.085 17.337  0.0000  0.0000  0.0000
 2014 309    36    27    685  6.1285  0.0561  4.1014  1.3228  0.3897 0.00702  3.789  6.172 23.885 20.198  0.0000  0.0000  0.0000
 2014 310    37    28    715  5.7728  0.0582  3.8515  1.2290  0.4105 0.00842  3.791  6.141 24.741 20.819  0.0000  0.0000  0.0000
 2014 311    38    29    757  7.4532  0.0551  4.9620  1.6690  0.3617 0.01317  3.803  6.152 21.838 17.578  0.0000  0.0000  0.0000
 2014 312    39    30    791  6.1646  0.0553  4.1873  1.3426  0.3130 0.01295  3.813  6.149 21.173 16.644  0.0000  0.0000  0.0000
 2014 313    40    31    812  4.1199  0.0566  2.9705  0.8158  0.2367 0.01073  3.824  6.114 17.712 15.670  0.0000  0.0000  0.0000
 2014 314    41    32    860  8.7194  0.0626  5.6631  2.0068  0.4107 0.02322  3.837  6.151 21.235 17.529  0.0000  0.0000  0.0000
 2014 315    42    33    912  9.2116  0.0648  6.1869  2.0510  0.4145 0.02826  3.861  6.199 20.729 17.026  0.0000  0.0000  0.0000
 2014 316    43    34    968  9.8061  0.0654  6.5199  2.2089  0.4385 0.03198  3.881  6.255 21.605 16.682  0.0000  0.0000  0.0000
 2014 317    44    35   1024  9.6467  0.0655  6.3902  2.1827  0.4340 0.03350  3.896  6.309 22.036 15.997  0.0000  0.0000  0.0000
 2014 318    45    36   1057  6.2560  0.0720  4.3557  1.3201  0.3107 0.02328  3.902  6.297 18.453 14.995  4.5083  3.7635 59.0597
 2014 319    46    37   1114 10.1778  0.0729  6.6949  2.3407  0.4083 0.03855  3.913  6.346 19.843 15.032  4.5075  3.6870 59.1410
 2014 320    47    38   1166  9.5369  0.0907  6.4258  2.0407  0.5678 0.03631  3.924  6.351 23.376 18.636  4.5292  4.1738 58.5187
 2014 321    48    39   1189  5.4642  0.1052  3.8513  1.0059  0.5358 0.02008  3.916  6.277 24.116 20.463  4.5625  4.5015 57.9831
 2014 322    49    40   1205  3.4416  0.0678  2.3711  0.7235  0.2096 0.01308  3.904  6.233 16.087 11.895  4.5565  4.0473 58.4743
 2014 323    50    41   1257  8.7844  0.0525  5.6616  2.1370  0.2087 0.03980  3.911  6.302 13.244  9.324  4.5623  3.6947 58.7909
 2014 324    51    42   1315  9.7990  0.0697  6.5917  2.2489  0.2924 0.04715  3.927  6.364 15.596 11.443  4.5592  3.4440 59.0608
 2014 325    52    43   1364  9.2240  0.1026  6.3342  1.9723  0.4612 0.04173  3.935  6.363 19.654 15.773  4.5471  3.5434 59.0373
 2014 326    53    44   1391  6.1829  0.1304  4.4496  1.1369  0.5387 0.02729  3.929  6.286 21.014 19.058  4.5491  3.8217 58.7463
 2014 327    54    45   1432  8.8648  0.1370  5.7005  1.8354  0.8705 0.03613  3.916  6.232 25.702 23.073  4.5812  4.0747 58.2928
 2014 328    55    46   1455  8.8789  0.1423  5.8537  1.7782  0.8897 0.03936  3.908  6.182 25.601 23.143  4.6097  4.1834 58.0956
 2014 329    56    47   1467  4.1089  0.1492  3.0180  0.6136  0.6351 0.02033  3.887  6.072 23.825 21.738  4.6156  4.3300 57.8948
 2014 330    57    48   1494  5.8793  0.1066  3.8100  1.3227  0.3568 0.02992  3.873  6.039 18.186 14.081  4.6039  4.2183 58.0714
 2014 331    58    49   1567 12.6152  0.0965  8.2009  2.9818  0.4093 0.08219  3.897  6.152 16.992 12.419  4.5975  4.0894 58.2353
 2014 332    59    50   1644 12.6183  0.0823  8.3222  2.9915  0.3003 0.08756  3.925  6.280 13.487  9.891  4.5968  3.9574 58.3683
 2014 333    60    51   1718 12.9976  0.1170  8.7231  2.9378  0.4864 0.09124  3.950  6.370 18.137 13.334  4.5899  3.8803 58.4835
 2014 334    61    52   1785 12.4748  0.1495  8.4237  2.6980  0.6758 0.08706  3.969  6.411 21.023 16.692  4.5813  3.9069 58.5054
 2014 335    62    53   1690 11.2834  0.1682  7.6596  2.3683  0.7332 0.08021  3.980  6.417 21.555 17.931  4.5623  2.9991 58.9258
 2014 336    63    54   1733  9.5374  0.1713  6.5998  1.9005  0.7184 0.07224  3.985  6.391 21.401 18.986  4.5606  3.2934 58.7451
 2014 337    64    55   1784 10.8590  0.1772  7.2924  2.2535  0.8016 0.08133  3.988  6.376 22.307 19.424  4.5612  3.5296 58.5838
 2014 338    65    56   1812 12.5852  0.1795  8.3639  2.6704  0.8713 0.09991  3.999  6.393 22.908 19.389  4.5616  3.2705 58.7591
 2014 339    66    57   1869 11.8990  0.1911  8.0495  2.4415  0.8838 0.09700  4.007  6.389 22.586 19.839  4.5642  3.5414 58.5576
 2014 340    67    58   1927 12.2754  0.1964  8.1484  2.5284  1.0133 0.10002  4.012  6.386 24.444 20.995  4.5724  3.7705 58.3417
 2014 341    68    59   1959  7.7121  0.1900  5.5109  1.4524  0.6339 0.06327  4.005  6.328 20.219 17.374  4.5651  3.8456 58.3585
 2014 342    69    60   1918  4.5344  0.1698  3.4668  0.7531  0.4254 0.03317  3.987  6.240 16.430 14.724  4.5492  4.2039 57.2821
 2014 343    70    61   1994 14.0627  0.1455  8.6835  3.4615  0.4911 0.12269  3.992  6.316 15.599 12.890  4.5450  4.0104 57.6584
 2014 344    71    62   2081 14.8229  0.1282  9.7556  3.4768  0.4077 0.15019  4.019  6.440 14.826 10.412  4.5477  3.7707 57.9808
 2014 345    72    63   2141 14.7662  0.1334  9.7796  3.4435  0.4016 0.15145  4.044  6.552 14.466 10.119  4.5513  4.1427 57.4980
 2014 346    73    64   2184  7.9299  0.1339  5.3413  1.8051  0.2865 0.08271  4.037  6.566 12.064  9.623  4.5546  3.9253 57.7669
 2014 347    74    65   2273 15.5742  0.1563 10.3072  3.5992  0.4948 0.16142  4.060  6.662 16.183 11.237  4.5540  3.7179 58.0773
 2014 348    75    66   2362 15.5179  0.1647 10.3065  3.5655  0.5124 0.16505  4.081  6.750 16.528 11.182  4.5536  3.5355 58.3480
 2014 349    76    67   2417 15.3309  0.1732 10.2008  3.4993  0.5442 0.16572  4.099  6.827 17.284 11.237  4.5530  3.6849 58.1241
 2014 350    77    68   2502 15.5287  0.2019 10.3863  3.4799  0.6449 0.16865  4.113  6.882 18.325 12.980  4.5486  3.5835 58.3483
 2014 351    78    69   2574 14.0287  0.2330  9.5781  3.0016  0.7308 0.14972  4.119  6.893 19.209 14.633  4.5425  3.5717 58.4921
 2014 352    79    70   2629 16.0972  0.2048 10.5646  3.7270  0.5818 0.18078  4.131  6.955 16.561 11.751  4.5420  3.9270 57.9649
 2014 353    80    71   2714 16.1778  0.2449 10.9525  3.5187  0.7812 0.18303  4.142  6.987 19.123 14.414  4.5371  3.8554 58.1707
 2014 354    81    72   2793 15.9873  0.2843 10.8355  3.3536  1.0198 0.17566  4.148  6.986 21.665 17.023  4.5339  3.9146 58.2404
 2014 355    82    73   2779 10.6794  0.3172  7.6236  1.9456  1.0290 0.10672  4.133  6.901 22.277 18.604  4.5365  3.8611 58.2557
 2014 356    83    74   2813 10.4720  0.3415  7.2630  1.8804  1.2443 0.09535  4.107  6.792 23.732 21.094  4.5539  4.0867 58.0381
 2014 357    84    75   2854 11.4902  0.3437  7.7396  2.1438  1.3702 0.10286  4.082  6.691 24.627 21.821  4.5715  4.2542 57.8424
 2014 358    85    76   2793  8.9653  0.3467  6.4704  1.4516  1.2180 0.06576  4.049  6.555 23.848 21.076  4.5847  3.9914 58.0796
 2014 359    86    77   2841 11.0934  0.2646  7.3971  2.4110  0.6578 0.10376  4.030  6.503 16.523 14.185  4.5722  3.8856 58.3089
 2014 360    87    78   2890 10.9265  0.2796  7.6529  2.2025  0.7265 0.10264  4.014  6.443 18.248 14.841  4.5613  3.8331 58.4679
 2014 361    88    79   2944 13.4035  0.3412  9.2576  2.5597  1.2623 0.09901  3.991  6.346 23.060 19.987  4.5651  4.0258 58.2913
 2014 362    89    80   3013 15.6533  0.3380 10.4718  3.1961  1.2989 0.12181  3.973  6.278 23.161 19.452  4.5650  4.1519 58.1950
 2014 363    90    81   2887 14.9618  0.3464 10.2344  2.9701  1.2592 0.10549  3.951  6.195 22.783 19.107  4.5623  3.9719 58.3067
 2014 364    91    82   2888  4.5871  0.0000  3.3572  0.3521  0.7985 0.29302  4.094  6.406 19.021 17.784  4.5547  4.0625 58.3108
 2014 365    92    83   2899  5.8994  0.3246  4.2953  1.0302  0.6977 0.03494  4.051  6.261 16.990 16.020  4.5464  4.0376 58.4176
 2015 001    93    84   2946 11.7488  0.3397  7.9813  2.3862  0.9566 0.06404  4.011  6.139 20.040 17.398  4.5431  4.0725 58.4218
 2015 002    94    85   2809 13.4748  0.3678  9.2803  2.6009  1.2814 0.07512  3.974  6.016 22.952 20.009  4.5531  3.8674 58.6629
 2015 003    95    86   2870 14.8347  0.3581  9.8499  2.9112  1.5672 0.08238  3.933  5.899 25.143 22.499  4.5760  4.0820 58.3076
 2015 004    96    87   2943 16.7541  0.3595 11.0803  3.3911  1.5651 0.11794  3.907  5.823 24.889 21.675  4.5869  4.2321 58.0914
 2015 005    97    88   2826 13.9886  0.3427  9.6157  2.8503  1.0176 0.12062  3.887  5.765 20.375 17.294  4.5710  4.2223 57.9343
 2015 006    98    89   2905 16.4735  0.3142 10.8862  3.5379  1.1010 0.14715  3.871  5.738 21.941 17.519  4.5632  4.2369 58.0148
 2015 007    99    90   3014 19.6265  0.2722 12.5802  4.6242  0.7315 0.27440  3.895  5.864 16.716 12.728  4.5590  4.0884 58.2132
 2015 008   100    91   3013 17.7618  0.2330 11.3660  4.2929  0.4684 0.27073  3.918  6.002 13.061  9.138  4.5634  5.6951 56.6651
 2015 009   101    92   3089 13.8013  0.2554  9.2628  3.1225  0.5060 0.20039  3.919  6.049 13.476 10.860  4.5629  5.3545 57.0197
 2015 010   102    93   3186 17.8933  0.2696 11.8526  4.0996  0.6172 0.25440  3.934  6.134 15.381 11.153  4.5618  5.0489 57.3425
 2015 011   103    94   3257 15.6822  0.3617 10.8997  3.1455  1.1261 0.13325  3.911  6.065 21.774 17.040  4.5543  4.9000 57.5550
 2015 012   104    95   3115  8.0384  0.0393  5.8415  1.0887  1.1567 0.04075  3.967  6.064 21.950 19.598  4.5588  4.9696 57.4884
 2015 013   105    96   3181 15.5644  0.3829  9.9493  3.4030  1.2198 0.09891  3.922  5.952 21.576 18.451  4.5555  4.8794 57.6091
 2015 014   106    97   3207  8.1156  0.1161  6.0806  1.2630  0.7880 0.03832  3.948  5.915 17.291 15.812  4.5479  4.7143 57.8283
 2015 015   107    98   3073  5.5905  0.3186  4.1739  1.0360  0.5217 0.02420  3.894  5.780 13.799 12.655  4.5437  5.5114 56.9551
 2015 016   108    99   3173 19.1444  0.3028 11.8403  4.6248  0.7956 0.27970  3.901  5.869 16.940 13.406  4.5403  5.2240 57.2796
 2015 017   109   100   3282 20.2143  0.3194 13.2170  4.5753  0.9015 0.33023  3.926  5.988 18.859 13.706  4.5375  5.0166 57.5171
 2015 018   110   101   3371 17.9479  0.3634 12.0876  3.8740  0.9579 0.26313  3.933  6.023 18.431 15.027  4.5334  4.8324 57.7409
 2015 019   111   102   3354 21.7988  0.3456 13.9127  5.1103  0.8915 0.34846  3.953  6.138 17.837 13.116  4.5306  6.2466 56.1826
 2015 020   112   103   3399 10.8168  0.3393  7.7727  2.1115  0.7469 0.10817  3.917  6.049 17.970 13.786  4.5278  5.8067 56.6766
 2015 021   113   104   3489 19.3191  0.3769 12.6135  4.2181  1.2543 0.18456  3.893  6.004 21.887 16.890  4.5258  5.4977 57.0389
 2015 022   114   105   3371 19.1048  0.4084 13.0315  3.9005  1.4073 0.10720  3.853  5.888 22.619 18.159  4.5301  6.2165 56.2422
 2015 023   115   106   3433 15.3050  0.4186 10.8439  2.8534  1.4229 0.04329  3.796  5.706 22.399 19.728  4.5437  5.7329 56.7147
 2015 024   116   107   3515 16.5721  0.3490 11.0397  3.6812  0.8455 0.10401  3.757  5.621 17.476 13.754  4.5379  5.2720 57.2400
 2015 025   117   108   3637 21.7053  0.3079 13.8411  5.2054  0.6722 0.31656  3.778  5.733 14.898 10.531  4.5411  4.8813 57.6247
 2015 026   118   109   3537 21.3785  0.3735 14.5203  4.7113  0.8785 0.21089  3.771  5.729 15.771 13.196  4.5358  5.1896 57.2734
 2015 027   119   110   3658 22.0868  0.3289 14.3540  5.1910  0.6958 0.31029  3.789  5.820 15.210 10.668  4.5390  4.8041 57.6612
 2015 028   120   111   3788 23.1229  0.3486 15.0765  5.4285  0.7020 0.34990  3.814  5.930 14.418 10.720  4.5415  4.4906 57.9774
 2015 029   121   112   3913 22.8115  0.3941 14.9940  5.2320  0.8953 0.31428  3.826  5.993 17.505 12.073  4.5404  4.2479 58.2452
 2015 030   122   113   4021 21.0866  0.4200 13.9537  4.7908  0.8978 0.27242  3.825  6.018 17.413 12.316  4.5390  4.0654 58.4507
 2015 031   123   114   4135 22.8619  0.4522 15.2335  5.1304  1.0280 0.24942  3.816  6.015 18.180 13.182  4.5365  3.9394 58.6062
 2015 032   124   115   4253 23.4594  0.5061 15.6218  5.1584  1.3123 0.25320  3.807  5.998 20.248 15.348  4.5322  3.9092 58.6776
 2015 033   125   116   3731 15.7313  0.5307 11.1472  3.1528  1.1935 0.04682  3.747  5.835 20.214 15.582  4.5268  3.9532 58.5354
 2015 034   126   117   3844 22.0693  0.3904 13.9784  5.3256  0.7516 0.30571  3.755  5.890 15.844 10.902  4.5297  3.7667 58.7248
 2015 035   127   118   3933 19.0803  0.5053 13.5099  3.8631  1.2315 0.06872  3.702  5.737 20.243 16.150  4.5265  3.8007 58.7451
 2015 036   128   119   3729  9.0033  0.4360  6.8577  1.5683  0.8963 0.01469  3.650  5.580 18.341 14.928  4.5216  3.8879 58.5339
 2015 037   129   120   3852 24.9346  0.3934 15.1867  6.1930  0.9216 0.30020  3.657  5.621 16.391 12.702  4.5218  3.7381 58.7262
 2015 038   130   121   3983 24.8522  0.4336 16.5012  5.5794  1.0896 0.29161  3.659  5.644 18.452 13.802  4.5204  3.6673 58.8429
 2015 039   131   122   4106 24.0684  0.4734 16.0787  5.3079  1.2589 0.20504  3.637  5.598 20.107 15.009  4.5184  3.6613 58.8953
 2015 040   132   123   3794  8.1690  0.0802  6.0267  1.2466  1.0108 0.01838  3.665  5.565 19.365 15.940  4.5161  3.5686 58.8897
 2015 041   133   124   3915 25.0732  0.3998 14.9750  6.3758  0.8990 0.24438  3.654  5.562 15.870 12.443  4.5175  3.4501 59.0419
 2015 042   134   125   4056 26.0436  0.4238 17.2248  5.9580  0.9738 0.29533  3.654  5.591 16.895 12.608  4.5183  3.3636 59.1573
 2015 043   135   126   3921 24.8310  0.4202 16.1911  5.8199  0.8492 0.33113  3.662  5.650 16.058 11.149  4.5227  3.5681 58.9473
 2015 044   136   127   4062 24.6963  0.3698 15.6608  6.0249  0.6020 0.46931  3.701  5.808 12.593  8.986  4.5293  3.3876 59.1023
 2015 045   137   128   4197 24.4048  0.3984 15.9200  5.7738  0.6683 0.40789  3.724  5.912 13.970  9.226  4.5355  3.2092 59.2584
 2015 046   138   129   4328 25.5109  0.5021 17.0566  5.7165  1.1428 0.27345  3.708  5.894 18.922 13.348  4.5329  3.1888 59.3179
 2015 047   139   130   4108 23.1337  0.5587 15.8696  4.9746  1.3032 0.09789  3.653  5.754 19.868 15.081  4.5275  3.0735 59.3518
 2015 048   140   131   4192 19.1930  0.5526 13.4407  3.8757  1.4562 0.03155  3.583  5.559 21.429 17.466  4.5269  3.3150 59.1688
 2015 049   141   132   4338 27.0201  0.4441 16.8617  6.6490  0.8113 0.43698  3.609  5.669 13.776 10.982  4.5293  3.2058 59.2820
 2015 050   142   133   4262 22.5810  0.3706 13.9754  5.6807  0.4229 0.55533  3.663  5.874  9.368  6.365  4.5324  4.1778 58.4731
 2015 051   143   134   4377 20.0547  0.3743 13.1541  4.7620  0.4728 0.40457  3.682  5.972 11.659  6.408  4.5385  3.9609 58.6530
 2015 052   144   135   4508 24.0676  0.5097 16.1889  5.3700  1.0615 0.30465  3.669  5.961 18.396 12.449  4.5371  3.8134 58.8114
 2015 053   145   136   4598 22.6255  0.6353 15.7607  4.5533  1.7924 0.03808  3.597  5.759 22.930 18.328  4.5374  3.9295 58.6963
 2015 054   146   137   4292 24.4249  0.6629 16.5713  5.0689  1.9671 0.04049  3.526  5.555 22.883 19.108  4.5427  3.6728 58.9907
 2015 055   147   138   4380 20.9291  0.6070 14.6836  4.1238  1.7380 0.03630  3.455  5.346 21.049 19.073  4.5453  3.8620 58.7747
 2015 056   148   139   4433 15.2269  0.6088 10.8197  2.8177  1.6822 0.02704  3.382  5.141 22.754 19.458  4.5484  3.9944 58.6151
 2015 057   149   140   4155 13.2002  0.5741  9.5415  2.4878  1.2774 0.02408  3.312  4.952 19.869 16.780  4.5407  3.8900 58.5936
 2015 058   150   141   4190 10.0889  0.4045  7.2603  1.9884  0.7683 0.05056  3.252  4.810 14.588 13.233  4.5380  3.7910 58.7246
 2015 059   151   142   4185  3.9435  0.0000  3.0305  0.3334  0.8528 0.02768  3.287  4.809 17.372 15.216  4.5338  3.7775 58.7806
 2015 060   152   143   4258 22.6462  0.4928 12.3602  5.5051  2.2943 0.13416  3.239  4.685 25.696 22.042  4.5504  3.9420 58.5275
 2015 061   153   144   4080 21.9541  0.5084 14.2539  4.4416  2.2646 0.25799  3.221  4.643 25.265 21.922  4.5856  2.7986 60.2564
 2015 062   154   145   4180 23.4242  0.4307 14.9303  4.9082  2.0768 0.35297  3.227  4.667 24.939 20.756  4.5888  3.1641 59.7431
 2015 063   155   146   4288 24.5900  0.4510 15.7487  5.1241  2.2205 0.32274  3.225  4.671 25.777 21.068  4.5930  3.4429 59.3426
 2015 064   156   147   4111 22.9375  0.4924 15.0892  4.6019  2.2623 0.16981  3.184  4.570 25.304 21.604  4.6149  0.8541 63.2444
 2015 065   157   148   4205 21.4977  0.4227 14.3155  4.3849  1.7833 0.13052  3.136  4.457 23.940 19.119  4.6003  1.7931 61.9127
 2015 066   158   149   4304 20.8877  0.4243 14.0288  4.4278  1.3060 0.19381  3.106  4.398 19.746 15.900  4.5818  2.2208 61.3043
 2015 067   159   150   4427 25.6203  0.4736 16.8884  5.4081  1.8756 0.22337  3.081  4.345 22.846 18.788  4.5746  2.7331 60.5834
 2015 068   160   151   4297 25.2995  0.5016 16.7089  5.2467  2.1098 0.14088  3.035  4.242 24.489 19.902  4.5752  2.6977 60.6350
 2015 069   161   152   4408 25.2352  0.5040 16.5783  5.0863  2.5280 0.04988  2.967  4.078 26.560 22.496  4.5957  3.1842 59.8220
 2015 070   162   153   4499 21.0402  0.5257 13.7494  4.1095  2.5486 0.04528  2.897  3.917 27.155 23.263  4.6171  3.5328 59.1996
 2015 071   163   154   4160 24.9990  0.5466 15.9743  5.0861  2.8367 0.05718  2.830  3.767 26.881 23.828  4.6444  3.2784 59.6842
 2015 072   164   155   4263 25.3339  0.5063 16.6775  5.1220  2.4753 0.04842  2.763  3.616 26.060 22.549  4.6492  3.5576 59.2121
 2015 073   165   156   4375 25.0640  0.5211 16.3448  5.0854  2.5751 0.05678  2.700  3.477 26.645 22.885  4.6555  3.7834 58.8167
 2015 074   166   157   4496 26.3800  0.5430 17.2643  5.4677  2.4042 0.10464  2.652  3.376 25.399 21.531  4.6520  3.9495 58.5704
 2015 075   167   158   3867 27.1615  0.5559 17.5248  5.6923  2.5193 0.17143  2.625  3.328 26.244 21.635  4.6483  3.4992 59.2480
 2015 076   168   159   4001 28.3137  0.4654 18.3852  6.0273  2.1765 0.22984  2.613  3.320 24.778 20.834  4.6417  3.7133 58.9490
 2015 077   169   160   4119 25.8607  0.4987 16.7506  5.3460  2.4590 0.16086  2.582  3.263 26.633 22.581  4.6466  3.8987 58.6345
 2015 078   170   161   3832 24.5090  0.5275 16.0422  5.0585  2.3094 0.10415  2.535  3.168 25.725 21.847  4.6459  3.2417 59.6437
 2015 079   171   162   3962 27.4496  0.3899 17.7323  5.8371  2.1689 0.16728  2.507  3.122 25.113 20.985  4.6399  3.5256 59.2364
 2015 080   172   163   4090 26.5418  0.4185 17.2703  5.5738  2.2039 0.14622  2.475  3.065 25.732 21.001  4.6356  3.7356 58.9345
 2015 081   173   164   4209 25.2855  0.4519 16.5843  5.2877  2.1251 0.10711  2.432  2.982 25.008 20.628  4.6303  3.8973 58.7115
 2015 082   174   165   3731 16.2788  0.4996 11.0970  3.1237  1.8398 0.03503  2.345  2.786 23.091 20.758  4.6230  3.3227 59.5176
 2015 083   175   166   3815 23.2739  0.3365 14.8975  4.9754  1.9273 0.09594  2.281  2.648 23.959 20.706  4.6194  3.5837 59.1529
 2015 084   176   167   3910 24.1774  0.3511 15.3858  5.1129  2.1230 0.23840  2.265  2.624 25.480 21.413  4.6206  3.7874 58.8482
 2015 085   177   168   3666 24.2520  0.3728 15.1602  5.1367  2.2868 0.33512  2.280  2.674 26.454 22.101  4.6274  3.3985 59.4789
 2015 086   178   169   3704 14.6750  0.3057  9.8606  2.8228  1.5062 0.12617  2.230  2.567 23.258 19.754  4.6199  3.5800 59.2345
 2015 087   179   170   3830 28.7417  0.2730 17.1340  6.9924  1.1023 0.81960  2.401  2.985 17.431 13.855  4.6109  3.5515 59.2623
