*PLANT N OUTPUT FILE

*DSSAT Cropping System Model Ver. 4.8.5.017 pre-release  JUN 28, 2025 01:29:39

*RUN   1        : Radiance                  CRGRO048 UFBA1401    1
 MODEL          : CRGRO048 - Strawberry
 EXPERIMENT     : UFBA1401 SR 2014 BALM STRAWBERRY VARIETY TRIAL
 DATA PATH      : /data/Strawberry/
 TREATMENT  1   : Radiance                  CRGRO048
  
@YEAR DOY   DAS   DAP    CNAD    GNAD    VNAD    GN%D    VN%D     NFXC    NUPC    LNAD    SNAD    LN%D    SN%D    SHND   RN%D   NFXD   SNN0C   SNN1C
 2014 282     9     0     4.4     0.0     4.4    0.00    3.57      0.0     0.0     2.2     2.2    4.40    3.01     0.0    2.3    0.0    0.00    0.02
 2014 283    10     1     4.4     0.0     4.4    0.00    3.56      0.0     0.0     2.2     2.2    4.40    3.01     0.0    2.3    0.0    0.00    0.03
 2014 284    11     2     4.5     0.0     4.5    0.00    3.53      0.0     0.0     2.2     2.4    4.39    2.99     0.0    2.3    0.3    0.01    0.05
 2014 285    12     3     4.6     0.0     4.6    0.00    3.49      0.0     0.0     2.1     2.5    4.38    2.97     0.0    2.3    0.3    0.02    0.06
 2014 286    13     4     4.8     0.0     4.8    0.00    3.45      0.0     0.0     2.1     2.7    4.37    2.96     0.0    2.3    0.3    0.03    0.08
 2014 287    14     5     4.8     0.0     4.8    0.00    3.42      0.0     0.0     2.1     2.7    4.36    2.93     0.0    2.2    0.1    0.04    0.10
 2014 288    15     6     5.0     0.0     5.0    0.00    3.39      0.0     0.0     2.1     2.9    4.35    2.93     0.0    2.2    0.3    0.05    0.12
 2014 289    16     7     5.1     0.0     5.1    0.00    3.35      0.0     0.0     2.1     3.1    4.34    2.91     0.0    2.2    0.3    0.06    0.14
 2014 290    17     8     5.3     0.0     5.3    0.00    3.32      0.0     0.0     2.0     3.2    4.33    2.90     0.0    2.2    0.3    0.07    0.16
 2014 291    18     9     5.5     0.0     5.5    0.00    3.29      0.0     0.0     2.1     3.4    4.32    2.88     0.0    2.2    0.3    0.08    0.18
 2014 292    19    10     5.6     0.0     5.6    0.00    3.26      0.0     0.0     2.1     3.6    4.30    2.86     0.0    2.2    0.3    0.09    0.21
 2014 293    20    11     5.9     0.0     5.9    0.00    3.26      0.0     0.0     2.2     3.7    4.30    2.85     0.0    2.2    0.3    0.10    0.23
 2014 294    21    12     6.0     0.0     6.0    0.00    3.25      0.0     0.0     2.3     3.7    4.29    2.83     0.0    2.2    0.2    0.11    0.26
 2014 295    22    13     6.3     0.0     6.3    0.00    3.26      0.0     0.0     2.5     3.8    4.30    2.82     0.0    2.1    0.4    0.12    0.29
 2014 296    23    14     6.7     0.0     6.7    0.00    3.26      0.0     0.0     2.7     4.0    4.30    2.80     0.0    2.1    0.5    0.14    0.32
 2014 297    24    15     7.0     0.0     7.0    0.00    3.26      0.0     0.0     2.9     4.1    4.29    2.79     0.0    2.1    0.5    0.15    0.34
 2014 298    25    16     7.4     0.0     7.4    0.00    3.26      0.0     0.0     3.1     4.3    4.29    2.78     0.0    2.1    0.6    0.17    0.37
 2014 299    26    17     7.9     0.0     7.9    0.00    3.27      0.0     0.0     3.4     4.5    4.30    2.77     0.0    2.1    0.7    0.18    0.40
 2014 300    27    18     8.4     0.0     8.4    0.00    3.28      0.0     0.0     3.7     4.7    4.29    2.76     0.0    2.1    0.7    0.19    0.43
 2014 301    28    19     8.8     0.0     8.8    0.00    3.28      0.0     0.0     4.0     4.9    4.29    2.75     0.0    2.1    0.7    0.21    0.47
 2014 302    29    20     9.2     0.0     9.2    0.00    3.28      0.0     0.0     4.2     5.0    4.28    2.74     0.0    2.1    0.6    0.23    0.50
 2014 303    30    21     9.6     0.0     9.6    0.00    3.28      0.0     0.0     4.5     5.1    4.27    2.73     0.0    2.1    0.6    0.25    0.54
 2014 304    31    22    10.2     0.0    10.2    0.00    3.29      0.0     0.0     4.9     5.3    4.28    2.72     0.0    2.1    0.9    0.28    0.59
 2014 305    32    23    10.9     0.0    10.9    0.00    3.31      0.0     0.0     5.3     5.6    4.29    2.72     0.0    2.1    1.0    0.30    0.62
 2014 306    33    24    11.6     0.0    11.6    0.00    3.33      0.0     0.0     5.8     5.9    4.29    2.73     0.0    2.1    1.1    0.31    0.65
 2014 307    34    25    12.3     0.0    12.3    0.00    3.34      0.0     0.0     6.2     6.1    4.29    2.72     0.0    2.1    1.1    0.33    0.69
 2014 308    35    26    12.9     0.0    12.9    0.00    3.34      0.0     0.0     6.6     6.3    4.28    2.71     0.0    2.1    0.9    0.36    0.74
 2014 309    36    27    13.6     0.0    13.6    0.00    3.34      0.0     0.0     7.0     6.5    4.27    2.71     0.0    2.1    0.9    0.40    0.79
 2014 310    37    28    14.1     0.0    14.1    0.00    3.34      0.0     0.0     7.4     6.7    4.27    2.70     0.0    2.1    0.9    0.43    0.86
 2014 311    38    29    14.9     0.0    14.9    0.00    3.35      0.0     0.0     7.9     7.0    4.27    2.69     0.0    2.1    1.2    0.47    0.92
 2014 312    39    30    15.6     0.0    15.5    0.00    3.35      0.0     0.0     8.3     7.2    4.26    2.69     3.4    2.1    0.9    0.51    0.98
 2014 313    40    31    15.9     0.0    15.8    0.00    3.33      0.0     0.0     8.5     7.3    4.24    2.67     3.3    2.1    0.5    0.56    1.04
 2014 314    41    32    16.9     0.0    16.8    0.00    3.35      0.0     0.0     9.1     7.7    4.26    2.67     3.3    2.1    1.5    0.60    1.11
 2014 315    42    33    17.9     0.0    17.8    0.00    3.36      0.0     0.0     9.8     8.0    4.26    2.67     3.3    2.1    1.5    0.65    1.18
 2014 316    43    34    19.0     0.0    18.8    0.00    3.37      0.0     0.0    10.4     8.4    4.26    2.67     3.3    2.1    1.6    0.69    1.25
 2014 317    44    35    20.0     0.0    19.8    0.00    3.38      0.0     0.0    11.0     8.8    4.26    2.67     3.3    2.1    1.6    0.75    1.32
 2014 318    45    36    20.7     0.0    20.3    4.51    3.37      0.0     0.0    11.4     8.9    4.25    2.66     3.3    2.1    0.9    0.81    1.40
 2014 319    46    37    21.9     0.0    21.4    4.51    3.38      0.0     0.0    12.1     9.3    4.26    2.67     3.3    2.1    1.7    0.86    1.47
 2014 320    47    38    22.9     0.0    22.2    4.54    3.38      0.0     0.0    12.6     9.6    4.25    2.66     3.3    2.1    1.4    0.94    1.57
 2014 321    48    39    23.3     0.1    22.4    4.58    3.36      0.0     0.0    12.7     9.7    4.23    2.64     3.3    2.0    0.6    1.02    1.67
 2014 322    49    40    23.6     0.1    22.6    4.57    3.36      0.0     0.0    12.9     9.8    4.23    2.64     3.3    2.0    0.5    1.07    1.73
 2014 323    50    41    24.8     0.1    23.7    4.57    3.38      0.0     0.0    13.5    10.2    4.25    2.65     3.3    2.1    1.6    1.10    1.78
 2014 324    51    42    26.0     0.1    24.7    4.57    3.38      0.0     0.0    14.2    10.5    4.25    2.66     3.3    2.1    1.7    1.15    1.85
 2014 325    52    43    27.0     0.2    25.5    4.55    3.38      0.0     0.0    14.6    10.8    4.24    2.65     3.3    2.1    1.4    1.22    1.95
 2014 326    53    44    27.5     0.3    25.6    4.56    3.36      0.0     0.0    14.7    10.8    4.22    2.63     3.3    2.0    0.7    1.32    2.07
 2014 327    54    45    28.5     0.3    26.2    4.60    3.36      0.0     0.0    15.1    11.1    4.23    2.63     3.3    2.0    1.3    1.40    2.19
 2014 328    55    46    28.1     0.2    26.8    4.66    3.36      0.0     0.0    15.5    11.3    4.22    2.62     3.3    2.0    1.3    2.54    2.31
 2014 329    56    47    28.3     0.2    26.7    4.67    3.33      0.0     0.0    15.4    11.2    4.20    2.60     3.3    2.0    0.3    2.64    2.44
 2014 330    57    48    29.0     0.3    27.2    4.65    3.34      0.0     0.0    15.8    11.4    4.21    2.60     3.3    2.0    1.0    2.71    2.54
 2014 331    58    49    30.6     0.3    28.7    4.64    3.36      0.0     0.0    16.7    12.0    4.23    2.62     3.3    2.0    2.3    2.76    2.62
 2014 332    59    50    32.2     0.3    30.1    4.64    3.38      0.0     0.0    17.6    12.5    4.24    2.63     3.3    2.0    2.2    2.80    2.68
 2014 333    60    51    33.7     0.3    31.5    4.62    3.38      0.0     0.0    18.5    13.0    4.23    2.63     3.3    2.0    2.2    2.88    2.78
 2014 334    61    52    35.1     0.4    32.6    4.61    3.38      0.0     0.0    19.2    13.4    4.23    2.62     3.2    2.0    1.9    2.98    2.91
 2014 335    62    53    34.2     0.1    33.5    4.56    3.37      0.0     0.0    19.8    13.8    4.22    2.62     3.2    2.0    1.7    4.68    3.05
 2014 336    63    54    35.1     0.1    34.2    4.57    3.36      0.0     0.0    20.2    14.0    4.21    2.60     3.2    2.0    1.3    4.80    3.21
 2014 337    64    55    36.1     0.1    35.0    4.57    3.36      0.0     0.0    20.7    14.3    4.21    2.60     3.2    2.0    1.6    4.95    3.37
 2014 338    65    56    36.8     0.1    36.0    4.58    3.36      0.0     0.0    21.3    14.7    4.20    2.60     3.2    2.0    1.9    5.57    3.52
 2014 339    66    57    38.0     0.1    36.9    4.59    3.35      0.0     0.0    21.9    15.0    4.20    2.59     3.3    2.0    1.7    5.70    3.69
 2014 340    67    58    39.2     0.2    37.8    4.61    3.35      0.0     0.0    22.4    15.4    4.20    2.58     3.3    2.0    1.8    5.84    3.86
 2014 341    68    59    39.8     0.2    38.1    4.59    3.33      0.0     0.0    22.6    15.5    4.18    2.57     3.3    2.0    0.9    5.97    4.02
 2014 342    69    60    39.3     0.1    38.0    4.56    3.32      0.0     0.0    22.6    15.4    4.17    2.56     3.3    2.0    0.4    6.69    4.16
 2014 343    70    61    41.4     0.2    39.8    4.55    3.36      0.0     0.0    23.7    16.1    4.21    2.58     3.3    2.0    2.9    6.77    4.28
 2014 344    71    62    43.2     0.2    41.4    4.56    3.37      0.0     0.0    24.7    16.7    4.22    2.59     3.3    2.0    2.6    6.86    4.37
 2014 345    72    63    44.4     0.1    43.1    4.56    3.37      0.0     0.0    25.8    17.3    4.22    2.60     3.3    2.0    2.6    7.49    4.47
 2014 346    73    64    45.4     0.1    44.0    4.56    3.38      0.0     0.0    26.3    17.7    4.22    2.60     3.3    2.0    1.4    7.56    4.56
 2014 347    74    65    47.3     0.2    45.7    4.56    3.38      0.0     0.0    27.3    18.3    4.23    2.61     3.3    2.0    2.7    7.63    4.67
 2014 348    75    66    49.2     0.2    47.3    4.56    3.39      0.0     0.0    28.4    18.9    4.23    2.61     3.3    2.0    2.6    7.75    4.79
 2014 349    76    67    50.5     0.2    48.9    4.56    3.39      0.0     0.0    29.3    19.5    4.23    2.61     3.3    2.0    2.5    8.26    4.91
 2014 350    77    68    52.3     0.2    50.4    4.55    3.39      0.0     0.0    30.3    20.1    4.23    2.62     3.3    2.0    2.6    8.41    5.05
 2014 351    78    69    53.8     0.3    51.6    4.54    3.39      0.0     0.0    31.0    20.5    4.22    2.61     3.3    2.0    2.2    8.57    5.23
 2014 352    79    70    55.3     0.2    53.3    4.54    3.40      0.0     0.0    32.1    21.2    4.23    2.62     3.3    2.0    2.8    9.16    5.37
 2014 353    80    71    57.1     0.3    54.7    4.53    3.40      0.0     0.0    33.0    21.7    4.23    2.62     3.3    2.0    2.6    9.31    5.55
 2014 354    81    72    58.8     0.4    55.9    4.53    3.39      0.0     0.0    33.7    22.2    4.22    2.61     3.3    2.0    2.4    9.50    5.76
 2014 355    82    73    59.7     0.5    56.0    4.54    3.38      0.0     0.0    33.8    22.2    4.21    2.60     3.3    2.0    1.3    9.71    6.00
 2014 356    83    74    58.4     0.3    56.1    4.60    3.37      0.0     0.0    33.9    22.3    4.20    2.59     3.3    2.0    1.3   11.72    6.25
 2014 357    84    75    59.4     0.4    56.5    4.62    3.36      0.0     0.0    34.1    22.4    4.20    2.58     3.3    2.0    1.5   11.93    6.51
 2014 358    85    76    58.8     0.3    56.4    4.64    3.35      0.0     0.0    34.0    22.4    4.19    2.56     3.3    2.0    0.9   13.13    6.76
 2014 359    86    77    60.1     0.3    57.1    4.61    3.35      0.0     0.0    34.5    22.6    4.19    2.57     3.3    2.0    1.8   13.33    6.95
 2014 360    87    78    61.2     0.4    57.6    4.59    3.35      0.0     0.0    34.8    22.8    4.19    2.56     3.3    2.0    1.6   13.53    7.15
 2014 361    88    79    62.5     0.6    57.9    4.60    3.34      0.0     0.0    35.0    23.0    4.18    2.55     3.3    2.0    1.9   13.78    7.40
 2014 362    89    80    64.3     0.7    58.6    4.60    3.34      0.0     0.0    35.4    23.2    4.19    2.55     3.3    2.0    2.4   14.02    7.65
 2014 363    90    81    63.1     0.4    59.1    4.59    3.33      0.0     0.0    35.7    23.4    4.18    2.54     3.3    1.9    2.2   16.66    7.89
 2014 364    91    82    63.0     0.6    58.2    4.58    3.30      0.0     0.0    35.1    23.1    4.16    2.51     3.3    1.9    0.0   16.89    8.14
 2014 365    92    83    63.5     0.8    57.7    4.56    3.29      0.0     0.0    34.8    22.9    4.16    2.50     3.3    1.9    0.7   17.10    8.36
 2015 001    93    84    63.5     0.8    57.7    4.56    3.29      0.0     0.0    34.8    22.9    4.16    2.50     3.3    1.9    0.7   17.10    8.36

*DSSAT Cropping System Model Ver. 4.8.5.017 pre-release  JUN 28, 2025 01:29:44

*RUN   2        : Radiance                  CRGRO048 UFBA1601    1
 MODEL          : CRGRO048 - Strawberry
 EXPERIMENT     : UFBA1601 SR 2016 BALM STRAWBERRY VARIETY TRIAL
 DATA PATH      : /data/Strawberry/
 TREATMENT  1   : Radiance                  CRGRO048
  
@YEAR DOY   DAS   DAP    CNAD    GNAD    VNAD    GN%D    VN%D     NFXC    NUPC    LNAD    SNAD    LN%D    SN%D    SHND   RN%D   NFXD   SNN0C   SNN1C
 2016 282     9     0     4.4     0.0     4.4    0.00    3.57      0.0     0.0     2.2     2.2    4.40    3.01     0.0    2.3    0.0    0.00    0.02
 2016 283    10     1     4.4     0.0     4.4    0.00    3.56      0.0     0.0     2.2     2.2    4.40    3.01     0.0    2.3    0.0    0.00    0.03
 2016 284    11     2     4.5     0.0     4.5    0.00    3.52      0.0     0.0     2.1     2.4    4.39    2.99     0.0    2.3    0.3    0.01    0.05
 2016 285    12     3     4.6     0.0     4.6    0.00    3.48      0.0     0.0     2.1     2.5    4.38    2.96     0.0    2.3    0.2    0.02    0.07
 2016 286    13     4     4.7     0.0     4.7    0.00    3.45      0.0     0.0     2.1     2.6    4.37    2.95     0.0    2.2    0.2    0.03    0.09
 2016 287    14     5     4.8     0.0     4.8    0.00    3.42      0.0     0.0     2.1     2.8    4.36    2.94     0.0    2.2    0.3    0.04    0.10
 2016 288    15     6     5.0     0.0     5.0    0.00    3.38      0.0     0.0     2.1     2.9    4.35    2.92     0.0    2.2    0.3    0.05    0.12
 2016 289    16     7     5.1     0.0     5.1    0.00    3.35      0.0     0.0     2.1     3.0    4.34    2.91     0.0    2.2    0.2    0.06    0.14
 2016 290    17     8     5.2     0.0     5.2    0.00    3.33      0.0     0.0     2.0     3.2    4.33    2.89     0.0    2.2    0.2    0.07    0.17
 2016 291    18     9     5.4     0.0     5.4    0.00    3.31      0.0     0.0     2.1     3.3    4.32    2.88     0.0    2.2    0.3    0.08    0.19
 2016 292    19    10     5.6     0.0     5.6    0.00    3.30      0.0     0.0     2.2     3.4    4.31    2.87     0.0    2.2    0.3    0.09    0.21
 2016 293    20    11     5.8     0.0     5.8    0.00    3.30      0.0     0.0     2.3     3.5    4.31    2.85     0.0    2.2    0.4    0.10    0.24
 2016 294    21    12     6.1     0.0     6.1    0.00    3.30      0.0     0.0     2.5     3.6    4.31    2.84     0.0    2.2    0.4    0.11    0.26
 2016 295    22    13     6.4     0.0     6.4    0.00    3.30      0.0     0.0     2.7     3.7    4.30    2.82     0.0    2.1    0.4    0.12    0.29
 2016 296    23    14     6.8     0.0     6.8    0.00    3.30      0.0     0.0     2.9     3.9    4.31    2.81     0.0    2.1    0.6    0.14    0.31
 2016 297    24    15     7.2     0.0     7.2    0.00    3.31      0.0     0.0     3.1     4.1    4.31    2.81     0.0    2.1    0.6    0.15    0.34
 2016 298    25    16     7.6     0.0     7.6    0.00    3.31      0.0     0.0     3.4     4.2    4.30    2.79     0.0    2.1    0.6    0.16    0.37
 2016 299    26    17     8.0     0.0     8.0    0.00    3.31      0.0     0.0     3.6     4.4    4.29    2.78     0.0    2.1    0.6    0.18    0.40
 2016 300    27    18     8.5     0.0     8.5    0.00    3.31      0.0     0.0     3.9     4.6    4.29    2.77     0.0    2.1    0.6    0.20    0.43
 2016 301    28    19     8.9     0.0     8.9    0.00    3.31      0.0     0.0     4.1     4.7    4.28    2.76     0.0    2.1    0.6    0.22    0.47
 2016 302    29    20     9.3     0.0     9.3    0.00    3.31      0.0     0.0     4.4     4.9    4.28    2.75     0.0    2.1    0.6    0.24    0.51
 2016 303    30    21     9.7     0.0     9.7    0.00    3.32      0.0     0.0     4.7     5.0    4.28    2.74     0.0    2.1    0.6    0.26    0.55
 2016 304    31    22    10.2     0.0    10.2    0.00    3.32      0.0     0.0     5.0     5.2    4.28    2.74     0.0    2.1    0.7    0.28    0.59
 2016 305    32    23    10.8     0.0    10.8    0.00    3.33      0.0     0.0     5.4     5.4    4.28    2.73     0.0    2.1    0.9    0.30    0.64
 2016 306    33    24    11.3     0.0    11.3    0.00    3.34      0.0     0.0     5.7     5.6    4.28    2.72     0.0    2.1    0.9    0.33    0.68
 2016 307    34    25    11.8     0.0    11.8    0.00    3.34      0.0     0.0     6.0     5.8    4.27    2.71     0.0    2.1    0.7    0.36    0.73
 2016 308    35    26    12.4     0.0    12.4    0.00    3.34      0.0     0.0     6.4     6.0    4.27    2.71     0.0    2.1    0.9    0.39    0.79
 2016 309    36    27    13.0     0.0    13.0    0.00    3.34      0.0     0.0     6.8     6.2    4.27    2.70     0.0    2.1    1.0    0.42    0.84
 2016 310    37    28    13.8     0.0    13.8    0.00    3.35      0.0     0.0     7.3     6.5    4.27    2.70     0.0    2.1    1.1    0.45    0.90
 2016 311    38    29    14.5     0.0    14.5    0.00    3.35      0.0     0.0     7.7     6.8    4.26    2.69     0.0    2.1    1.1    0.49    0.96
 2016 312    39    30    15.1     0.0    15.1    0.00    3.35      0.0     0.0     8.1     7.0    4.25    2.68     3.4    2.1    1.0    0.53    1.03
 2016 313    40    31    16.0     0.0    16.0    0.00    3.36      0.0     0.0     8.7     7.3    4.26    2.68     3.4    2.1    1.3    0.57    1.10
 2016 314    41    32    16.7     0.0    16.7    0.00    3.36      0.0     0.0     9.1     7.6    4.25    2.68     3.4    2.1    1.1    0.62    1.17
 2016 315    42    33    17.7     0.0    17.7    0.00    3.36      0.0     0.0     9.7     7.9    4.25    2.68     3.3    2.1    1.5    0.67    1.25
 2016 316    43    34    18.7     0.0    18.6    0.00    3.37      0.0     0.0    10.3     8.3    4.25    2.67     3.3    2.1    1.5    0.72    1.33
 2016 317    44    35    19.7     0.0    19.6    0.00    3.37      0.0     0.0    11.0     8.7    4.25    2.67     3.3    2.1    1.5    0.77    1.41
 2016 318    45    36    20.7     0.0    20.5    0.00    3.37      0.0     0.0    11.5     9.0    4.25    2.67     3.3    2.1    1.5    0.83    1.49
 2016 319    46    37    21.0     0.0    20.7    4.56    3.35      0.0     0.0    11.7     9.1    4.22    2.64     3.3    2.0    0.5    0.91    1.59
 2016 320    47    38    21.8     0.0    21.4    4.53    3.36      0.0     0.0    12.1     9.3    4.23    2.65     3.3    2.1    1.3    0.98    1.68
 2016 321    48    39    23.0     0.0    22.5    4.53    3.37      0.0     0.0    12.7     9.7    4.24    2.65     3.3    2.1    1.7    1.05    1.77
 2016 322    49    40    24.3     0.1    23.6    4.52    3.37      0.0     0.0    13.5    10.2    4.24    2.65     3.3    2.1    1.9    1.12    1.86
 2016 323    50    41    25.6     0.1    24.6    4.53    3.37      0.0     0.0    14.1    10.5    4.23    2.65     3.3    2.1    1.8    1.19    1.96
 2016 324    51    42    26.8     0.1    25.6    4.54    3.37      0.0     0.0    14.7    10.9    4.23    2.64     3.3    2.1    1.8    1.27    2.07
 2016 325    52    43    28.4     0.2    27.0    4.53    3.38      0.0     0.0    15.5    11.4    4.24    2.65     3.3    2.1    2.2    1.32    2.16
 2016 326    53    44    29.4     0.1    28.3    4.54    3.39      0.0     0.0    16.4    11.9    4.24    2.66     3.3    2.1    2.1    1.77    2.23
 2016 327    54    45    30.8     0.1    29.6    4.53    3.40      0.0     0.0    17.2    12.4    4.25    2.66     3.3    2.1    2.1    1.82    2.33
 2016 328    55    46    31.9     0.2    30.5    4.53    3.39      0.0     0.0    17.7    12.8    4.23    2.65     3.3    2.1    1.6    1.91    2.45
 2016 329    56    47    32.3     0.1    31.3    4.55    3.38      0.0     0.0    18.2    13.1    4.23    2.65     3.3    2.1    1.6    2.62    2.59
 2016 330    57    48    33.5     0.2    32.2    4.57    3.38      0.0     0.0    18.8    13.4    4.22    2.64     3.3    2.0    1.8    2.74    2.74
 2016 331    58    49    34.6     0.2    33.0    4.57    3.37      0.0     0.0    19.3    13.7    4.22    2.63     3.3    2.0    1.6    2.86    2.89
 2016 332    59    50    36.0     0.2    34.2    4.56    3.38      0.0     0.0    20.0    14.2    4.22    2.63     3.3    2.0    2.0    2.95    3.02
 2016 333    60    51    35.7     0.1    34.9    4.55    3.37      0.0     0.0    20.4    14.4    4.21    2.62     3.3    2.0    1.4    4.05    3.18
 2016 334    61    52    37.0     0.1    35.8    4.57    3.36      0.0     0.0    21.0    14.8    4.21    2.62     3.3    2.0    1.8    4.18    3.34
 2016 335    62    53    37.7     0.2    36.3    4.59    3.35      0.0     0.0    21.3    15.0    4.20    2.61     3.3    2.0    1.2    4.31    3.52
 2016 336    63    54    38.2     0.1    37.1    4.63    3.35      0.0     0.0    21.8    15.3    4.20    2.60     3.3    2.0    1.7    4.96    3.70
 2016 337    64    55    39.8     0.1    38.3    4.60    3.35      0.0     0.0    22.6    15.8    4.20    2.60     3.3    2.0    2.3    5.10    3.86
 2016 338    65    56    41.4     0.2    39.6    4.58    3.35      0.0     0.0    23.3    16.2    4.20    2.60     3.3    2.0    2.3    5.23    4.02
 2016 339    66    57    42.8     0.3    40.5    4.60    3.35      0.0     0.0    23.9    16.6    4.19    2.59     3.3    2.0    2.1    5.39    4.20
 2016 340    67    58    43.0     0.2    41.1    4.64    3.34      0.0     0.0    24.2    16.8    4.19    2.58     3.3    2.0    1.5    6.23    4.39
 2016 341    68    59    43.4     0.3    40.8    4.64    3.32      0.0     0.0    24.1    16.7    4.17    2.57     3.3    2.0    0.5    6.39    4.59
 2016 342    69    60    45.2     0.4    42.2    4.62    3.34      0.0     0.0    24.9    17.2    4.19    2.58     3.3    2.0    2.7    6.55    4.78
 2016 343    70    61    45.3     0.3    42.8    4.59    3.33      0.0     0.0    25.3    17.5    4.19    2.57     3.3    2.0    1.8    7.77    4.95
 2016 344    71    62    46.5     0.3    43.7    4.57    3.33      0.0     0.0    25.9    17.8    4.19    2.57     3.3    2.0    1.8    7.90    5.09
 2016 345    72    63    48.5     0.4    45.2    4.56    3.34      0.0     0.0    26.8    18.4    4.20    2.58     3.3    2.0    2.7    8.02    5.25
 2016 346    73    64    49.7     0.5    45.7    4.56    3.33      0.0     0.0    27.1    18.6    4.19    2.57     3.3    2.0    1.7    8.16    5.44
 2016 347    74    65    48.6     0.2    46.3    4.60    3.32      0.0     0.0    27.4    18.8    4.18    2.56     3.3    2.0    1.8   10.31    5.65
 2016 348    75    66    50.2     0.3    47.2    4.61    3.32      0.0     0.0    28.0    19.2    4.18    2.56     3.3    2.0    2.2   10.48    5.86
 2016 349    76    67    51.7     0.4    47.8    4.61    3.32      0.0     0.0    28.4    19.4    4.18    2.55     3.3    2.0    2.1   10.69    6.07
 2016 350    77    68    51.9     0.3    48.7    4.58    3.32      0.0     0.0    28.9    19.8    4.18    2.55     3.3    2.0    2.5   12.31    6.28
 2016 351    78    69    53.9     0.4    50.0    4.57    3.32      0.0     0.0    29.7    20.3    4.18    2.55     3.3    2.0    2.7   12.49    6.47
 2016 352    79    70    55.5     0.6    50.6    4.58    3.32      0.0     0.0    30.1    20.5    4.18    2.54     3.3    2.0    2.2   12.68    6.68
 2016 353    80    71    56.7     0.7    50.8    4.61    3.31      0.0     0.0    30.2    20.6    4.17    2.53     3.3    1.9    1.6   12.87    6.91
 2016 354    81    72    55.6     0.5    51.4    4.66    3.30      0.0     0.0    30.5    20.8    4.17    2.53     3.3    1.9    2.2   15.38    7.14
 2016 355    82    73    56.4     0.6    51.1    4.65    3.29      0.0     0.0    30.4    20.7    4.16    2.51     3.3    1.9    1.1   15.63    7.39
 2016 356    83    74    57.3     0.8    50.9    4.62    3.28      0.0     0.0    30.3    20.7    4.15    2.50     3.3    1.9    1.3   15.89    7.59
 2016 357    84    75    56.0     0.4    52.1    4.58    3.29      0.0     0.0    31.0    21.1    4.17    2.51     3.3    1.9    3.0   19.17    7.79
 2016 358    85    76    58.0     0.5    53.0    4.57    3.29      0.0     0.0    31.5    21.5    4.17    2.51     3.3    1.9    2.7   19.39    8.00
 2016 359    86    77    59.9     0.7    53.7    4.58    3.28      0.0     0.0    31.9    21.7    4.17    2.51     3.3    1.9    2.5   19.63    8.22
 2016 360    87    78    61.8     1.0    54.1    4.61    3.28      0.0     0.0    32.2    21.9    4.16    2.50     3.3    1.9    2.4   19.80    8.46
 2016 361    88    79    60.2     0.6    54.6    4.63    3.28      0.0     0.0    32.5    22.1    4.16    2.50     3.3    1.9    2.4   22.93    8.69
 2016 362    89    80    62.0     0.8    55.2    4.64    3.27      0.0     0.0    32.8    22.4    4.16    2.49     3.3    1.9    2.4   23.19    8.93
 2016 363    90    81    64.0     1.0    55.7    4.64    3.27      0.0     0.0    33.2    22.6    4.16    2.49     3.3    1.9    2.6   23.50    9.16
 2016 364    91    82    61.5     0.5    56.4    4.61    3.27      0.0     0.0    33.6    22.8    4.16    2.49     3.3    1.9    2.8   27.68    9.39
 2016 365    92    83    63.8     0.6    58.3    4.61    3.29      0.0     0.0    34.7    23.6    4.19    2.50     3.3    1.9    3.2   27.79    9.51
 2016 366    93    84    66.1     0.7    59.9    4.59    3.30      0.0     0.0    35.7    24.2    4.19    2.51     3.3    1.9    3.0   27.89    9.66
 2017 001    94    85    68.0     0.9    60.5    4.59    3.29      0.0     0.0    36.1    24.5    4.18    2.50     3.3    1.9    2.5   28.13    9.88
 2017 002    95    86    66.4     0.6    61.0    4.62    3.28      0.0     0.0    36.3    24.6    4.17    2.49     3.3    1.9    2.4   31.21   10.14
 2017 003    96    87    68.1     0.8    61.3    4.63    3.27      0.0     0.0    36.5    24.8    4.17    2.49     3.3    1.9    2.3   31.51   10.40
 2017 004    97    88    70.3     1.0    62.2    4.61    3.28      0.0     0.0    37.1    25.1    4.18    2.49     3.3    1.9    2.9   31.80   10.63
 2017 005    98    89    67.9     0.5    63.0    4.57    3.28      0.0     0.0    37.5    25.4    4.18    2.49     3.3    1.9    3.0   36.06   10.87
 2017 006    99    90    70.4     0.7    64.2    4.56    3.29      0.0     0.0    38.3    25.9    4.19    2.49     3.3    1.9    3.2   36.23   11.09
 2017 007   100    91    70.9     0.8    63.9    4.55    3.28      0.0     0.0    38.1    25.8    4.18    2.48     3.3    1.9    0.6   36.40   11.26
 2017 008   101    92    73.2     0.8    66.1    4.56    3.31      0.0     0.0    39.4    26.7    4.21    2.51     3.3    1.9    3.2   36.44   11.33
 2017 009   102    93    73.0     0.5    67.7    4.56    3.31      0.0     0.0    40.4    27.3    4.21    2.51     3.3    1.9    3.2   38.82   11.47
 2017 010   103    94    75.2     0.7    69.0    4.55    3.31      0.0     0.0    41.1    27.8    4.21    2.51     3.3    1.9    2.9   38.96   11.68
 2017 011   104    95    77.4     0.9    69.8    4.54    3.30      0.0     0.0    41.6    28.1    4.20    2.50     3.3    1.9    2.9   39.25   11.93
 2017 012   105    96    77.2     0.7    70.6    4.54    3.30      0.0     0.0    42.2    28.5    4.21    2.50     3.3    1.9    3.4   41.93   12.19
 2017 013   106    97    78.8     1.0    70.2    4.55    3.28      0.0     0.0    41.9    28.3    4.19    2.49     3.3    1.9    2.1   42.38   12.49
 2017 014   107    98    80.8     1.3    70.0    4.56    3.28      0.0     0.0    41.7    28.3    4.19    2.48     3.3    1.9    2.6   42.84   12.78
 2017 015   108    99    82.9     1.7    69.7    4.56    3.27      0.0     0.0    41.6    28.2    4.19    2.47     3.3    1.9    2.5   43.09   13.06
 2017 016   109   100    77.8     0.9    69.3    4.56    3.26      0.0     0.0    41.3    28.0    4.18    2.46     3.3    1.9    2.4   49.40   13.33
 2017 017   110   101    80.4     1.3    69.5    4.57    3.26      0.0     0.0    41.4    28.1    4.18    2.46     3.3    1.9    3.2   49.73   13.60
 2017 018   111   102    83.2     1.6    69.7    4.56    3.26      0.0     0.0    41.5    28.2    4.18    2.46     3.3    1.9    3.3   50.01   13.85
 2017 019   112   103    80.6     1.2    70.2    4.56    3.26      0.0     0.0    41.8    28.4    4.19    2.46     3.3    1.9    3.5   54.89   14.10
 2017 020   113   104    83.1     1.5    70.2    4.56    3.25      0.0     0.0    41.8    28.4    4.18    2.45     3.3    1.9    2.9   55.20   14.36
 2017 021   114   105    86.0     2.0    70.2    4.57    3.25      0.0     0.0    41.8    28.4    4.18    2.44     3.3    1.9    3.4   55.54   14.63
 2017 022   115   106    87.0     2.5    69.0    4.59    3.22      0.0     0.0    41.0    28.0    4.17    2.42     3.3    1.9    1.1   55.83   14.93
 2017 023   116   107    78.2     1.1    68.5    4.56    3.22      0.0     0.0    40.7    27.8    4.17    2.42     3.2    1.8    3.4   65.85   15.19
 2017 024   117   108    81.7     1.4    69.7    4.55    3.23      0.0     0.0    41.4    28.3    4.18    2.42     3.3    1.9    4.5   66.17   15.41
 2017 025   118   109    84.9     1.7    70.7    4.54    3.23      0.0     0.0    42.0    28.7    4.19    2.43     3.3    1.9    4.0   66.47   15.63
 2017 026   119   110    80.1     1.2    69.5    4.57    3.21      0.0     0.0    41.3    28.2    4.17    2.40     3.3    1.8    2.2   72.65   15.92
 2017 027   120   111    82.7     1.6    69.3    4.55    3.21      0.0     0.0    41.1    28.2    4.17    2.40     3.3    1.8    3.0   72.91   16.15
 2017 028   121   112    85.1     1.8    70.3    4.55    3.22      0.0     0.0    41.7    28.5    4.18    2.41     3.3    1.8    2.9   73.04   16.30
 2017 029   122   113    86.5     2.0    70.5    4.55    3.22      0.0     0.0    41.9    28.7    4.19    2.41     3.3    1.8    1.7   73.12   16.45
 2017 030   123   114    82.8     1.1    72.7    4.56    3.24      0.0     0.0    43.2    29.5    4.20    2.42     3.3    1.9    4.6   79.42   16.60
 2017 031   124   115    86.1     1.3    74.4    4.55    3.24      0.0     0.0    44.2    30.2    4.21    2.43     3.3    1.9    4.2   79.69   16.77
 2017 032   125   116    89.7     1.6    75.9    4.54    3.25      0.0     0.0    45.1    30.8    4.22    2.44     3.3    1.9    4.4   79.83   16.97
 2017 033   126   117    87.1     1.3    76.1    4.54    3.25      0.0     0.0    45.2    30.9    4.21    2.43     3.3    1.9    3.9   85.31   17.22
 2017 034   127   118    90.5     1.7    76.5    4.53    3.25      0.0     0.0    45.4    31.0    4.21    2.43     3.3    1.9    4.2   85.68   17.49
 2017 035   128   119    93.9     2.2    76.3    4.53    3.24      0.0     0.0    45.3    31.0    4.21    2.42     3.3    1.9    4.0   86.23   17.76
 2017 036   129   120    97.1     2.9    75.8    4.53    3.23      0.0     0.0    45.0    30.8    4.21    2.41     3.3    1.9    3.7   86.65   18.02
 2017 037   130   121    89.1     1.6    75.7    4.54    3.22      0.0     0.0    44.9    30.8    4.20    2.41     3.3    1.9    4.2   96.55   18.28
 2017 038   131   122    92.3     2.1    75.1    4.56    3.21      0.0     0.0    44.5    30.6    4.20    2.40     3.3    1.8    3.5   96.89   18.55
 2017 039   132   123    95.3     2.8    74.0    4.56    3.20      0.0     0.0    43.9    30.2    4.19    2.38     3.3    1.8    3.4   97.28   18.84
 2017 040   133   124    87.9     1.6    73.1    4.56    3.19      0.0     0.0    43.3    29.9    4.18    2.37     3.3    1.8    4.1  106.89   19.10
 2017 041   134   125    91.5     2.0    74.2    4.55    3.19      0.0     0.0    43.9    30.3    4.18    2.37     3.3    1.8    5.0  107.26   19.31
 2017 042   135   126    95.3     2.5    74.6    4.55    3.18      0.0     0.0    44.1    30.4    4.18    2.37     3.3    1.8    4.6  107.58   19.54
 2017 043   136   127    99.2     3.2    74.3    4.54    3.17      0.0     0.0    44.0    30.4    4.17    2.36     3.3    1.8    4.6  107.90   19.77
 2017 044   137   128    90.4     2.0    73.3    4.56    3.16      0.0     0.0    43.3    30.0    4.16    2.34     3.3    1.8    3.9  118.62   20.03
 2017 045   138   129    93.4     2.7    72.3    4.56    3.14      0.0     0.0    42.7    29.6    4.14    2.33     3.3    1.8    3.4  118.96   20.29
 2017 046   139   130    96.4     3.5    71.2    4.57    3.12      0.0     0.0    42.0    29.2    4.13    2.31     3.3    1.8    3.3  119.24   20.57
 2017 047   140   131    84.9     1.6    72.3    4.56    3.12      0.0     0.0    42.6    29.6    4.13    2.31     3.3    1.8    5.4  132.43   20.74
 2017 048   141   132    88.4     2.0    73.6    4.55    3.12      0.0     0.0    43.4    30.1    4.13    2.31     3.3    1.8    4.8  132.65   20.91
 2017 049   142   133    90.7     2.5    72.7    4.54    3.11      0.0     0.0    42.9    29.8    4.12    2.30     3.3    1.8    2.5  132.94   21.13
 2017 050   143   134    94.3     3.3    71.7    4.55    3.09      0.0     0.0    42.3    29.4    4.10    2.29     3.3    1.7    4.2  133.26   21.38
 2017 051   144   135    84.8     2.0    71.1    4.56    3.08      0.0     0.0    41.9    29.2    4.09    2.27     3.3    1.7    4.7  144.92   21.61
 2017 052   145   136    87.4     2.7    70.1    4.57    3.06      0.0     0.0    41.2    28.8    4.08    2.26     3.3    1.7    2.8  145.18   21.86
 2017 053   146   137    88.6     3.3    69.0    4.56    3.05      0.0     0.0    40.6    28.5    4.06    2.24     3.3    1.7    1.4  145.43   22.09
 2017 054   147   138    80.5     2.1    68.2    4.55    3.03      0.0     0.0    40.0    28.1    4.05    2.23     3.2    1.7    3.5  154.55   22.31
 2017 055   148   139    84.2     2.7    67.4    4.58    3.01      0.0     0.0    39.6    27.9    4.04    2.22     3.3    1.7    4.1  154.76   22.55
 2017 056   149   140    87.8     3.4    66.5    4.59    3.00      0.0     0.0    39.0    27.5    4.02    2.20     3.3    1.7    4.2  155.25   22.78
 2017 057   150   141    92.1     4.2    66.4    4.58    2.99      0.0     0.0    38.9    27.5    4.01    2.19     3.3    1.7    5.2  155.44   22.99
 2017 058   151   142    76.5     1.3    66.0    4.61    2.97      0.0     0.0    38.6    27.3    4.00    2.18     3.2    1.7    4.2  171.23   23.20
 2017 059   152   143    79.4     1.7    66.0    4.64    2.96      0.0     0.0    38.6    27.4    3.99    2.17     3.3    1.6    3.8  171.53   23.42
 2017 060   153   144    82.8     2.3    66.2    4.65    2.95      0.0     0.0    38.7    27.5    3.98    2.16     3.3    1.6    4.4  171.90   23.63
 2017 061   154   145    78.6     1.5    66.1    4.64    2.94      0.0     0.0    38.6    27.5    3.97    2.15     3.3    1.6    4.6  178.76   23.86
 2017 062   155   146    82.3     1.9    67.0    4.62    2.94      0.0     0.0    39.1    27.8    3.96    2.15     3.3    1.6    5.1  179.16   24.07
 2017 063   156   147    86.1     2.3    68.3    4.60    2.94      0.0     0.0    39.9    28.4    3.96    2.15     3.3    1.6    5.4  179.54   24.25
 2017 064   157   148    89.9     2.9    68.4    4.59    2.93      0.0     0.0    40.0    28.4    3.95    2.15     3.3    1.6    4.6  179.91   24.47
 2017 065   158   149    79.3     1.1    68.5    4.56    2.92      0.0     0.0    40.0    28.5    3.94    2.14     3.2    1.6    4.3  191.84   24.69
 2017 066   159   150    82.7     1.5    69.1    4.56    2.91      0.0     0.0    40.4    28.7    3.94    2.13     3.3    1.6    4.6  192.11   24.89
 2017 067   160   151    86.1     2.0    69.1    4.57    2.90      0.0     0.0    40.3    28.7    3.93    2.13     3.3    1.6    4.2  192.43   25.11
 2017 068   161   152    82.2     1.4    69.0    4.59    2.89      0.0     0.0    40.2    28.7    3.92    2.12     3.3    1.6    4.3  198.98   25.32
 2017 069   162   153    86.2     2.0    69.2    4.59    2.89      0.0     0.0    40.4    28.8    3.91    2.11     3.3    1.6    5.1  199.36   25.55
 2017 070   163   154    90.3     2.6    69.4    4.60    2.88      0.0     0.0    40.5    28.9    3.90    2.11     3.3    1.6    5.2  199.77   25.77
 2017 071   164   155    93.0     3.3    68.4    4.60    2.86      0.0     0.0    39.8    28.6    3.89    2.09     3.3    1.6    3.0  200.12   26.00
 2017 072   165   156    80.7     1.8    67.4    4.59    2.84      0.0     0.0    39.2    28.2    3.87    2.08     3.2    1.6    1.7  211.79   26.23
 2017 073   166   157    84.8     2.4    67.6    4.57    2.83      0.0     0.0    39.3    28.3    3.86    2.07     3.2    1.6    5.9  212.07   26.43
 2017 074   167   158    88.8     2.7    70.1    4.57    2.85      0.0     0.0    40.8    29.3    3.87    2.08     3.2    1.6    5.9  212.14   26.54
 2017 075   168   159    85.8     1.9    72.1    4.57    2.86      0.0     0.0    42.0    30.1    3.88    2.09     3.2    1.6    5.3  218.13   26.65
 2017 076   169   160    90.1     2.3    74.1    4.56    2.87      0.0     0.0    43.2    30.9    3.88    2.10     3.3    1.6    5.6  218.26   26.82
 2017 077   170   161    94.6     2.8    75.5    4.56    2.87      0.0     0.0    44.1    31.5    3.88    2.10     3.3    1.7    5.9  218.55   27.01

*DSSAT Cropping System Model Ver. 4.8.5.017 pre-release  JUN 28, 2025 01:29:54

*RUN   3        : Brilliance                CRGRO048 UFBA1601    2
 MODEL          : CRGRO048 - Strawberry
 EXPERIMENT     : UFBA1601 SR 2016 BALM STRAWBERRY VARIETY TRIAL
 DATA PATH      : /data/Strawberry/
 TREATMENT  2   : Brilliance                CRGRO048
  
@YEAR DOY   DAS   DAP    CNAD    GNAD    VNAD    GN%D    VN%D     NFXC    NUPC    LNAD    SNAD    LN%D    SN%D    SHND   RN%D   NFXD   SNN0C   SNN1C
 2016 282     9     0     4.4     0.0     4.4    0.00    3.57      0.0     0.0     2.2     2.2    4.40    3.01     0.0    2.3    0.0    0.00    0.02
 2016 283    10     1     4.4     0.0     4.4    0.00    3.56      0.0     0.0     2.2     2.2    4.40    3.01     0.0    2.3    0.0    0.00    0.03
 2016 284    11     2     4.5     0.0     4.5    0.00    3.52      0.0     0.0     2.1     2.4    4.39    2.99     0.0    2.3    0.4    0.01    0.05
 2016 285    12     3     4.6     0.0     4.6    0.00    3.48      0.0     0.0     2.1     2.5    4.38    2.96     0.0    2.3    0.2    0.02    0.07
 2016 286    13     4     4.7     0.0     4.7    0.00    3.45      0.0     0.0     2.1     2.6    4.37    2.95     0.0    2.2    0.3    0.03    0.09
 2016 287    14     5     4.9     0.0     4.9    0.00    3.41      0.0     0.0     2.1     2.8    4.36    2.94     0.0    2.2    0.3    0.04    0.10
 2016 288    15     6     5.0     0.0     5.0    0.00    3.38      0.0     0.0     2.1     3.0    4.35    2.92     0.0    2.2    0.3    0.05    0.12
 2016 289    16     7     5.1     0.0     5.1    0.00    3.35      0.0     0.0     2.1     3.1    4.34    2.91     0.0    2.2    0.2    0.06    0.15
 2016 290    17     8     5.3     0.0     5.3    0.00    3.32      0.0     0.0     2.0     3.2    4.33    2.89     0.0    2.2    0.2    0.07    0.17
 2016 291    18     9     5.4     0.0     5.4    0.00    3.30      0.0     0.0     2.1     3.4    4.32    2.88     0.0    2.2    0.3    0.08    0.19
 2016 292    19    10     5.6     0.0     5.6    0.00    3.30      0.0     0.0     2.2     3.5    4.31    2.87     0.0    2.2    0.3    0.09    0.22
 2016 293    20    11     5.9     0.0     5.9    0.00    3.30      0.0     0.0     2.4     3.6    4.31    2.85     0.0    2.2    0.4    0.10    0.24
 2016 294    21    12     6.2     0.0     6.2    0.00    3.30      0.0     0.0     2.5     3.7    4.31    2.84     0.0    2.2    0.4    0.11    0.27
 2016 295    22    13     6.5     0.0     6.5    0.00    3.29      0.0     0.0     2.7     3.8    4.31    2.82     0.0    2.2    0.4    0.12    0.30
 2016 296    23    14     7.0     0.0     7.0    0.00    3.30      0.0     0.0     3.0     4.0    4.31    2.82     0.0    2.1    0.6    0.14    0.32
 2016 297    24    15     7.5     0.0     7.5    0.00    3.31      0.0     0.0     3.2     4.2    4.31    2.81     0.0    2.1    0.7    0.15    0.35
 2016 298    25    16     7.9     0.0     7.9    0.00    3.31      0.0     0.0     3.5     4.4    4.30    2.80     0.0    2.1    0.7    0.16    0.38
 2016 299    26    17     8.4     0.0     8.4    0.00    3.31      0.0     0.0     3.8     4.6    4.29    2.78     0.0    2.1    0.6    0.18    0.41
 2016 300    27    18     8.9     0.0     8.9    0.00    3.32      0.0     0.0     4.1     4.8    4.29    2.78     0.0    2.1    0.7    0.20    0.44
 2016 301    28    19     9.3     0.0     9.3    0.00    3.32      0.0     0.0     4.4     5.0    4.29    2.77     0.0    2.1    0.6    0.22    0.48
 2016 302    29    20     9.8     0.0     9.8    0.00    3.32      0.0     0.0     4.6     5.1    4.29    2.76     0.0    2.1    0.7    0.24    0.53
 2016 303    30    21    10.2     0.0    10.2    0.00    3.32      0.0     0.0     4.9     5.3    4.28    2.75     0.0    2.1    0.7    0.26    0.57
 2016 304    31    22    10.8     0.0    10.8    0.00    3.33      0.0     0.0     5.3     5.5    4.28    2.74     0.0    2.1    0.8    0.29    0.61
 2016 305    32    23    11.5     0.0    11.5    0.00    3.34      0.0     0.0     5.7     5.7    4.29    2.74     0.0    2.1    1.0    0.31    0.66
 2016 306    33    24    12.1     0.0    12.1    0.00    3.34      0.0     0.0     6.1     5.9    4.28    2.73     0.0    2.1    1.0    0.34    0.71
 2016 307    34    25    12.6     0.0    12.6    0.00    3.34      0.0     0.0     6.5     6.1    4.27    2.72     0.0    2.1    0.8    0.37    0.76
 2016 308    35    26    13.3     0.0    13.3    0.00    3.35      0.0     0.0     6.9     6.4    4.27    2.71     0.0    2.1    1.0    0.40    0.82
 2016 309    36    27    14.0     0.0    14.0    0.00    3.35      0.0     0.0     7.3     6.6    4.27    2.71     0.0    2.1    1.1    0.44    0.88
 2016 310    37    28    14.8     0.0    14.8    0.00    3.36      0.0     0.0     7.9     6.9    4.27    2.71     0.0    2.1    1.3    0.47    0.95
 2016 311    38    29    15.6     0.0    15.6    0.00    3.36      0.0     0.0     8.4     7.2    4.27    2.70     0.0    2.1    1.3    0.51    1.01
 2016 312    39    30    16.3     0.0    16.3    0.00    3.36      0.0     0.0     8.8     7.5    4.26    2.69     3.4    2.1    1.1    0.56    1.09
 2016 313    40    31    17.3     0.0    17.3    0.00    3.37      0.0     0.0     9.4     7.9    4.26    2.69     3.4    2.1    1.5    0.60    1.16
 2016 314    41    32    18.1     0.0    18.1    0.00    3.37      0.0     0.0     9.9     8.2    4.25    2.68     3.4    2.1    1.3    0.65    1.24
 2016 315    42    33    19.3     0.0    19.2    0.00    3.37      0.0     0.0    10.6     8.6    4.26    2.68     3.3    2.1    1.7    0.70    1.33
 2016 316    43    34    20.4     0.0    20.3    0.00    3.38      0.0     0.0    11.3     9.0    4.25    2.68     3.3    2.1    1.7    0.76    1.41
 2016 317    44    35    21.6     0.0    21.4    0.00    3.38      0.0     0.0    12.0     9.4    4.25    2.68     3.3    2.1    1.8    0.82    1.50
 2016 318    45    36    22.7     0.0    22.4    0.00    3.38      0.0     0.0    12.6     9.8    4.25    2.68     3.3    2.1    1.7    0.89    1.59
 2016 319    46    37    23.1     0.0    22.6    4.56    3.36      0.0     0.0    12.7     9.8    4.22    2.65     3.3    2.1    0.5    0.99    1.70
 2016 320    47    38    24.0     0.0    23.3    4.53    3.37      0.0     0.0    13.2    10.1    4.24    2.66     3.3    2.1    1.4    1.07    1.80
 2016 321    48    39    25.4     0.0    24.4    4.53    3.37      0.0     0.0    13.9    10.5    4.24    2.66     3.3    2.1    2.0    1.16    1.89
 2016 322    49    40    27.0     0.1    25.6    4.52    3.38      0.0     0.0    14.6    11.0    4.24    2.66     3.3    2.1    2.2    1.25    1.99
 2016 323    50    41    28.4     0.1    26.6    4.53    3.38      0.0     0.0    15.3    11.3    4.24    2.65     3.3    2.1    2.0    1.34    2.11
 2016 324    51    42    29.9     0.2    27.6    4.54    3.38      0.0     0.0    15.9    11.7    4.23    2.65     3.3    2.1    2.0    1.42    2.22
 2016 325    52    43    31.8     0.2    29.1    4.53    3.39      0.0     0.0    16.8    12.3    4.24    2.66     3.3    2.1    2.6    1.49    2.32
 2016 326    53    44    32.7     0.2    30.6    4.54    3.40      0.0     0.0    17.7    12.9    4.25    2.67     3.3    2.1    2.4    2.25    2.40
 2016 327    54    45    34.4     0.2    32.0    4.53    3.40      0.0     0.0    18.6    13.4    4.25    2.67     3.3    2.1    2.4    2.31    2.50
 2016 328    55    46    35.7     0.3    32.9    4.53    3.40      0.0     0.0    19.1    13.7    4.24    2.66     3.3    2.1    1.8    2.41    2.63
 2016 329    56    47    35.7     0.2    33.7    4.55    3.39      0.0     0.0    19.6    14.1    4.23    2.65     3.3    2.1    1.8    3.57    2.78
 2016 330    57    48    37.1     0.3    34.7    4.57    3.39      0.0     0.0    20.3    14.4    4.23    2.65     3.3    2.0    2.0    3.71    2.94
 2016 331    58    49    38.4     0.3    35.6    4.57    3.38      0.0     0.0    20.8    14.8    4.22    2.64     3.3    2.0    1.8    3.86    3.11
 2016 332    59    50    39.9     0.4    36.8    4.56    3.38      0.0     0.0    21.5    15.2    4.23    2.64     3.3    2.0    2.2    3.96    3.25
 2016 333    60    51    39.1     0.1    37.5    4.55    3.38      0.0     0.0    22.0    15.5    4.22    2.63     3.2    2.0    1.6    5.66    3.42
 2016 334    61    52    40.6     0.2    38.4    4.57    3.37      0.0     0.0    22.6    15.9    4.22    2.63     3.3    2.0    2.1    5.81    3.59
 2016 335    62    53    41.5     0.2    38.8    4.59    3.36      0.0     0.0    22.8    16.0    4.21    2.61     3.3    2.0    1.3    5.98    3.79
 2016 336    63    54    41.8     0.2    39.5    4.63    3.36      0.0     0.0    23.3    16.3    4.21    2.61     3.3    2.0    1.9    6.97    3.98
 2016 337    64    55    43.6     0.2    40.8    4.60    3.36      0.0     0.0    24.0    16.8    4.21    2.61     3.3    2.0    2.6    7.15    4.15
 2016 338    65    56    45.5     0.3    42.0    4.58    3.36      0.0     0.0    24.8    17.2    4.21    2.61     3.3    2.0    2.6    7.32    4.32
 2016 339    66    57    47.2     0.4    42.9    4.60    3.36      0.0     0.0    25.3    17.6    4.21    2.60     3.3    2.0    2.4    7.51    4.51
 2016 340    67    58    47.1     0.3    43.3    4.64    3.35      0.0     0.0    25.6    17.7    4.20    2.59     3.3    2.0    1.7    8.82    4.71
 2016 341    68    59    47.5     0.4    43.0    4.64    3.33      0.0     0.0    25.4    17.6    4.18    2.57     3.3    2.0    0.6    8.99    4.92
 2016 342    69    60    49.8     0.6    44.2    4.62    3.35      0.0     0.0    26.1    18.1    4.21    2.59     3.3    2.0    3.0    9.17    5.12
 2016 343    70    61    49.2     0.4    44.7    4.59    3.34      0.0     0.0    26.4    18.3    4.20    2.58     3.3    2.0    2.0   11.12    5.30
 2016 344    71    62    50.7     0.5    45.5    4.57    3.34      0.0     0.0    26.9    18.6    4.20    2.58     3.3    2.0    2.0   11.29    5.45
 2016 345    72    63    52.9     0.6    47.0    4.56    3.35      0.0     0.0    27.9    19.2    4.21    2.59     3.3    2.0    3.1   11.42    5.61
 2016 346    73    64    54.4     0.8    47.4    4.56    3.34      0.0     0.0    28.1    19.3    4.20    2.57     3.3    2.0    1.9   11.58    5.81
 2016 347    74    65    52.1     0.4    47.8    4.60    3.33      0.0     0.0    28.3    19.5    4.20    2.57     3.2    2.0    2.0   15.05    6.03
 2016 348    75    66    54.0     0.5    48.4    4.61    3.33      0.0     0.0    28.7    19.7    4.20    2.56     3.3    2.0    2.5   15.25    6.24
 2016 349    76    67    55.8     0.7    48.8    4.61    3.32      0.0     0.0    29.0    19.9    4.19    2.55     3.3    2.0    2.4   15.52    6.46
 2016 350    77    68    55.4     0.5    49.5    4.58    3.32      0.0     0.0    29.3    20.1    4.19    2.55     3.3    2.0    2.8   17.95    6.67
 2016 351    78    69    57.7     0.6    50.5    4.57    3.33      0.0     0.0    30.0    20.5    4.20    2.55     3.3    2.0    3.0   18.18    6.86
 2016 352    79    70    59.7     0.9    50.9    4.58    3.32      0.0     0.0    30.2    20.7    4.19    2.54     3.3    2.0    2.5   18.40    7.08
 2016 353    80    71    61.1     1.1    50.7    4.61    3.30      0.0     0.0    30.1    20.6    4.18    2.53     3.3    1.9    1.7   18.61    7.31
 2016 354    81    72    58.8     0.7    51.0    4.66    3.30      0.0     0.0    30.3    20.7    4.18    2.52     3.3    1.9    2.4   22.39    7.53
 2016 355    82    73    59.8     0.9    50.6    4.65    3.28      0.0     0.0    30.0    20.6    4.16    2.51     3.3    1.9    1.2   22.66    7.77
 2016 356    83    74    60.8     1.2    50.3    4.62    3.27      0.0     0.0    29.8    20.5    4.16    2.49     3.2    1.9    1.4   22.95    7.98
 2016 357    84    75    57.7     0.6    51.3    4.58    3.28      0.0     0.0    30.4    20.8    4.18    2.50     3.2    1.9    3.4   28.11    8.17
 2016 358    85    76    60.2     0.8    51.8    4.57    3.28      0.0     0.0    30.7    21.0    4.17    2.50     3.3    1.9    3.0   28.33    8.38
 2016 359    86    77    62.5     1.1    52.0    4.58    3.27      0.0     0.0    30.9    21.1    4.17    2.49     3.3    1.9    2.8   28.62    8.59
 2016 360    87    78    64.8     1.4    51.9    4.61    3.26      0.0     0.0    30.8    21.1    4.16    2.48     3.3    1.9    2.6   28.78    8.82
 2016 361    88    79    61.6     0.9    51.9    4.63    3.25      0.0     0.0    30.8    21.1    4.16    2.47     3.3    1.9    2.6   33.69    9.04
 2016 362    89    80    63.8     1.2    52.0    4.64    3.25      0.0     0.0    30.8    21.2    4.15    2.46     3.3    1.9    2.7   34.00    9.26
 2016 363    90    81    66.0     1.5    52.2    4.64    3.24      0.0     0.0    31.0    21.2    4.15    2.46     3.3    1.9    2.9   34.42    9.48
 2016 364    91    82    61.6     0.8    52.5    4.61    3.24      0.0     0.0    31.1    21.4    4.15    2.45     3.2    1.9    3.1   40.51    9.69
 2016 365    92    83    64.2     0.9    54.4    4.61    3.26      0.0     0.0    32.3    22.1    4.18    2.47     3.3    1.9    3.5   40.66    9.80
 2016 366    93    84    66.8     1.0    55.9    4.59    3.27      0.0     0.0    33.2    22.7    4.18    2.48     3.3    1.9    3.3   40.75    9.93
 2017 001    94    85    69.0     1.3    56.2    4.59    3.26      0.0     0.0    33.4    22.8    4.18    2.47     3.3    1.9    2.7   41.04   10.14
 2017 002    95    86    66.2     0.9    56.3    4.62    3.26      0.0     0.0    33.4    22.9    4.17    2.46     3.2    1.9    2.7   45.63   10.37
 2017 003    96    87    68.2     1.2    56.0    4.63    3.24      0.0     0.0    33.3    22.8    4.16    2.45     3.2    1.9    2.4   46.00   10.61
 2017 004    97    88    70.6     1.4    56.5    4.61    3.25      0.0     0.0    33.6    23.0    4.17    2.45     3.2    1.9    3.1   46.38   10.82
 2017 005    98    89    65.9     0.7    56.9    4.57    3.24      0.0     0.0    33.8    23.1    4.17    2.45     3.2    1.9    3.2   53.00   11.03
 2017 006    99    90    68.7     1.0    57.8    4.56    3.25      0.0     0.0    34.3    23.5    4.18    2.45     3.3    1.9    3.5   53.16   11.23
 2017 007   100    91    69.3     1.1    57.4    4.55    3.24      0.0     0.0    34.1    23.3    4.17    2.44     3.3    1.9    0.7   53.38   11.38
 2017 008   101    92    72.0     1.2    59.7    4.56    3.28      0.0     0.0    35.5    24.2    4.21    2.48     3.3    1.9    3.6   53.41   11.44
 2017 009   102    93    70.6     0.8    61.3    4.56    3.28      0.0     0.0    36.4    24.9    4.21    2.48     3.3    1.9    3.5   57.07   11.57
 2017 010   103    94    73.2     1.0    62.2    4.55    3.28      0.0     0.0    37.0    25.2    4.20    2.48     3.3    1.9    3.1   57.20   11.76
 2017 011   104    95    75.8     1.2    62.6    4.54    3.27      0.0     0.0    37.2    25.4    4.20    2.47     3.3    1.9    3.2   57.55   11.98
 2017 012   105    96    74.5     1.0    62.9    4.54    3.27      0.0     0.0    37.4    25.5    4.20    2.47     3.3    1.9    3.7   61.66   12.21
 2017 013   106    97    76.3     1.4    62.1    4.55    3.25      0.0     0.0    36.9    25.2    4.19    2.45     3.3    1.9    2.2   62.19   12.47
 2017 014   107    98    78.5     1.9    61.5    4.56    3.24      0.0     0.0    36.5    25.0    4.18    2.44     3.3    1.9    2.7   62.75   12.72
 2017 015   108    99    80.9     2.4    60.9    4.56    3.23      0.0     0.0    36.2    24.8    4.18    2.43     3.3    1.9    2.6   62.99   12.96
 2017 016   109   100    72.9     1.3    60.4    4.56    3.22      0.0     0.0    35.8    24.6    4.17    2.42     3.2    1.9    2.5   71.94   13.19
 2017 017   110   101    75.8     1.7    59.9    4.57    3.22      0.0     0.0    35.5    24.4    4.17    2.41     3.3    1.8    3.4   72.39   13.42
 2017 018   111   102    79.0     2.3    59.4    4.56    3.21      0.0     0.0    35.2    24.2    4.17    2.41     3.3    1.8    3.5   72.74   13.64
 2017 019   112   103    74.0     1.5    59.5    4.56    3.21      0.0     0.0    35.2    24.2    4.17    2.40     3.3    1.8    3.7   80.07   13.84
 2017 020   113   104    76.9     2.0    58.8    4.56    3.20      0.0     0.0    34.8    24.0    4.17    2.39     3.3    1.8    3.1   80.37   14.06
 2017 021   114   105    80.1     2.5    58.4    4.57    3.19      0.0     0.0    34.5    23.8    4.16    2.38     3.3    1.8    3.6   80.72   14.28
 2017 022   115   106    81.3     3.2    57.4    4.59    3.17      0.0     0.0    33.9    23.5    4.15    2.37     3.2    1.8    1.3   80.99   14.52
 2017 023   116   107    68.4     1.2    56.9    4.55    3.17      0.0     0.0    33.6    23.3    4.15    2.36     3.2    1.8    3.4   94.52   14.74
 2017 024   117   108    72.4     1.6    57.6    4.54    3.18      0.0     0.0    34.0    23.6    4.17    2.37     3.2    1.8    4.6   94.84   14.91
 2017 025   118   109    76.0     2.0    57.8    4.54    3.18      0.0     0.0    34.1    23.7    4.17    2.37     3.3    1.8    4.2   95.18   15.09
 2017 026   119   110    71.6     1.6    56.9    4.56    3.16      0.0     0.0    33.6    23.3    4.16    2.35     3.2    1.8    2.4  100.97   15.32
 2017 027   120   111    74.5     2.2    56.5    4.55    3.16      0.0     0.0    33.3    23.2    4.16    2.34     3.2    1.8    3.1  101.17   15.51
 2017 028   121   112    77.1     2.5    57.0    4.55    3.17      0.0     0.0    33.6    23.4    4.17    2.35     3.2    1.8    2.9  101.28   15.63
 2017 029   122   113    78.7     2.7    56.9    4.55    3.16      0.0     0.0    33.6    23.4    4.17    2.35     3.3    1.8    1.7  101.35   15.74
 2017 030   123   114    72.9     1.5    58.8    4.55    3.19      0.0     0.0    34.7    24.1    4.20    2.37     3.3    1.8    4.9  109.68   15.86
 2017 031   124   115    76.6     1.8    60.0    4.55    3.20      0.0     0.0    35.4    24.6    4.21    2.38     3.3    1.8    4.5  110.00   16.00
 2017 032   125   116    80.7     2.2    60.9    4.54    3.20      0.0     0.0    35.9    24.9    4.22    2.38     3.3    1.8    4.6  110.11   16.16
 2017 033   126   117    76.3     1.7    60.3    4.53    3.19      0.0     0.0    35.6    24.7    4.21    2.37     3.3    1.8    4.0  117.45   16.35
 2017 034   127   118    80.3     2.3    59.8    4.53    3.19      0.0     0.0    35.3    24.5    4.21    2.36     3.3    1.8    4.3  117.85   16.55
 2017 035   128   119    83.8     3.0    59.2    4.53    3.18      0.0     0.0    34.9    24.3    4.21    2.36     3.3    1.8    4.2  118.57   16.76
 2017 036   129   120    87.2     3.8    58.7    4.53    3.17      0.0     0.0    34.5    24.1    4.21    2.35     3.3    1.8    3.8  118.93   16.96
 2017 037   130   121    77.5     2.1    58.3    4.54    3.17      0.0     0.0    34.3    24.0    4.21    2.34     3.3    1.8    4.3  130.39   17.15
 2017 038   131   122    81.0     2.8    57.7    4.55    3.16      0.0     0.0    33.9    23.8    4.21    2.33     3.3    1.8    3.6  130.62   17.36
 2017 039   132   123    84.2     3.6    57.0    4.56    3.15      0.0     0.0    33.5    23.5    4.20    2.32     3.2    1.8    3.4  130.84   17.57
 2017 040   133   124    72.9     1.9    56.6    4.56    3.15      0.0     0.0    33.2    23.4    4.21    2.32     3.2    1.8    4.2  143.85   17.77
 2017 041   134   125    77.0     2.3    57.5    4.55    3.16      0.0     0.0    33.8    23.8    4.22    2.33     3.3    1.8    5.0  144.25   17.93
 2017 042   135   126    81.2     2.8    57.8    4.55    3.16      0.0     0.0    34.0    23.9    4.23    2.33     3.3    1.8    4.6  144.53   18.10
 2017 043   136   127    85.4     3.4    57.6    4.54    3.16      0.0     0.0    33.8    23.8    4.23    2.32     3.3    1.8    4.6  144.85   18.28
 2017 044   137   128    73.1     1.7    57.0    4.56    3.15      0.0     0.0    33.4    23.6    4.22    2.31     3.2    1.8    4.0  158.55   18.47
 2017 045   138   129    76.2     2.4    56.4    4.57    3.13      0.0     0.0    33.0    23.4    4.22    2.30     3.2    1.8    3.4  158.81   18.67
 2017 046   139   130    79.2     3.2    55.6    4.58    3.12      0.0     0.0    32.5    23.1    4.21    2.29     3.2    1.8    3.3  159.06   18.88
 2017 047   140   131    72.8     1.9    56.5    4.56    3.12      0.0     0.0    33.0    23.4    4.21    2.29     3.2    1.8    5.3  168.00   19.01
 2017 048   141   132    76.8     2.3    57.0    4.56    3.12      0.0     0.0    33.3    23.6    4.21    2.29     3.3    1.8    4.8  168.26   19.14
 2017 049   142   133    79.1     3.0    56.3    4.55    3.11      0.0     0.0    32.9    23.4    4.20    2.28     3.3    1.7    2.5  168.45   19.31
 2017 050   143   134    82.7     3.9    55.6    4.55    3.09      0.0     0.0    32.5    23.1    4.18    2.26     3.2    1.7    4.1  168.67   19.50
 2017 051   144   135    71.7     2.3    54.9    4.56    3.07      0.0     0.0    32.1    22.9    4.17    2.25     3.2    1.7    4.7  181.49   19.67
 2017 052   145   136    74.3     3.1    54.2    4.57    3.06      0.0     0.0    31.6    22.6    4.16    2.23     3.2    1.7    2.8  181.69   19.86
 2017 053   146   137    75.5     3.8    53.4    4.56    3.04      0.0     0.0    31.1    22.3    4.14    2.22     3.2    1.7    1.4  181.90   20.03
 2017 054   147   138    64.9     1.9    52.7    4.56    3.02      0.0     0.0    30.7    22.1    4.13    2.20     3.2    1.7    3.3  192.95   20.20
 2017 055   148   139    68.6     2.5    52.1    4.59    3.01      0.0     0.0    30.2    21.8    4.12    2.19     3.2    1.7    4.1  193.11   20.38
 2017 056   149   140    71.9     3.3    51.4    4.59    2.99      0.0     0.0    29.8    21.6    4.10    2.17     3.2    1.7    4.2  193.70   20.56
 2017 057   150   141    76.3     4.1    51.3    4.58    2.98      0.0     0.0    29.7    21.5    4.09    2.16     3.2    1.6    5.1  193.85   20.71
 2017 058   151   142    62.2     1.0    50.9    4.62    2.96      0.0     0.0    29.5    21.4    4.08    2.15     3.2    1.6    4.1  207.75   20.87
 2017 059   152   143    65.3     1.4    50.6    4.65    2.95      0.0     0.0    29.3    21.3    4.06    2.14     3.3    1.6    3.7  208.03   21.03
 2017 060   153   144    68.7     1.9    50.6    4.66    2.94      0.0     0.0    29.3    21.3    4.05    2.13     3.3    1.6    4.3  208.42   21.19
 2017 061   154   145    67.2     1.5    50.2    4.65    2.92      0.0     0.0    29.0    21.2    4.04    2.12     3.3    1.6    4.5  213.12   21.36
 2017 062   155   146    71.3     2.0    50.0    4.62    2.91      0.0     0.0    28.9    21.1    4.03    2.11     3.3    1.6    5.0  213.63   21.51
 2017 063   156   147    75.2     2.4    50.6    4.60    2.91      0.0     0.0    29.2    21.4    4.02    2.11     3.3    1.6    5.2  214.14   21.65
 2017 064   157   148    79.1     3.2    50.0    4.59    2.89      0.0     0.0    28.9    21.2    4.01    2.09     3.3    1.6    4.4  214.56   21.81
 2017 065   158   149    66.8     1.5    49.5    4.56    2.87      0.0     0.0    28.5    21.0    3.99    2.08     3.2    1.6    4.1  228.23   21.96
 2017 066   159   150    70.6     2.0    49.0    4.56    2.86      0.0     0.0    28.2    20.8    3.98    2.07     3.3    1.6    4.3  228.52   22.10
 2017 067   160   151    74.1     2.6    48.4    4.57    2.84      0.0     0.0    27.8    20.6    3.97    2.06     3.3    1.6    4.0  228.87   22.24
 2017 068   161   152    67.7     1.8    47.9    4.59    2.83      0.0     0.0    27.5    20.4    3.96    2.04     3.2    1.6    4.1  237.57   22.39
 2017 069   162   153    71.9     2.5    47.3    4.59    2.81      0.0     0.0    27.2    20.2    3.94    2.03     3.3    1.6    4.9  237.93   22.54
 2017 070   163   154    76.2     3.3    46.9    4.60    2.80      0.0     0.0    26.9    20.0    3.93    2.02     3.2    1.5    4.9  238.27   22.68
 2017 071   164   155    78.7     4.3    46.2    4.60    2.78      0.0     0.0    26.5    19.8    3.91    2.00     3.2    1.5    2.9  238.47   22.83
 2017 072   165   156    61.9     2.3    45.6    4.59    2.76      0.0     0.0    26.1    19.5    3.90    1.99     3.2    1.5    1.7  253.84   22.98
 2017 073   166   157    65.8     2.7    45.6    4.58    2.75      0.0     0.0    26.1    19.6    3.88    1.98     3.2    1.5    5.3  254.15   23.11
 2017 074   167   158    69.6     3.0    47.9    4.58    2.77      0.0     0.0    27.4    20.5    3.90    2.00     3.2    1.6    5.4  254.20   23.18
 2017 075   168   159    63.9     1.9    49.6    4.58    2.79      0.0     0.0    28.4    21.1    3.91    2.01     3.2    1.6    4.9  262.34   23.25
 2017 076   169   160    68.0     2.3    51.3    4.57    2.80      0.0     0.0    29.4    21.8    3.91    2.02     3.2    1.6    5.3  262.42   23.36
 2017 077   170   161    72.1     2.7    52.7    4.56    2.81      0.0     0.0    30.3    22.4    3.91    2.03     3.2    1.6    5.5  262.75   23.49

*DSSAT Cropping System Model Ver. 4.8.5.017 pre-release  JUN 28, 2025 01:30:15

*RUN   4        : Radiance                  CRGRO048 UFBA1701    1
 MODEL          : CRGRO048 - Strawberry
 EXPERIMENT     : UFBA1701 SR 2017 BALM STRAWBERRY VARIETY TRIAL
 DATA PATH      : /data/Strawberry/
 TREATMENT  1   : Radiance                  CRGRO048
  
@YEAR DOY   DAS   DAP    CNAD    GNAD    VNAD    GN%D    VN%D     NFXC    NUPC    LNAD    SNAD    LN%D    SN%D    SHND   RN%D   NFXD   SNN0C   SNN1C
 2017 282     9     0     4.4     0.0     4.4    0.00    3.57      0.0     0.0     2.2     2.2    4.40    3.01     0.0    2.3    0.0    0.00    0.02
 2017 283    10     1     4.4     0.0     4.4    0.00    3.57      0.0     0.0     2.2     2.2    4.40    3.01     0.0    2.3    0.0    0.00    0.03
 2017 284    11     2     4.5     0.0     4.5    0.00    3.53      0.0     0.0     2.2     2.3    4.39    2.99     0.0    2.3    0.3    0.01    0.05
 2017 285    12     3     4.6     0.0     4.6    0.00    3.49      0.0     0.0     2.1     2.5    4.38    2.97     0.0    2.3    0.2    0.02    0.06
 2017 286    13     4     4.7     0.0     4.7    0.00    3.46      0.0     0.0     2.1     2.6    4.37    2.96     0.0    2.3    0.2    0.03    0.08
 2017 287    14     5     4.8     0.0     4.8    0.00    3.43      0.0     0.0     2.1     2.7    4.37    2.95     0.0    2.2    0.2    0.04    0.10
 2017 288    15     6     5.0     0.0     5.0    0.00    3.40      0.0     0.0     2.1     2.9    4.36    2.93     0.0    2.2    0.2    0.05    0.11
 2017 289    16     7     5.1     0.0     5.1    0.00    3.37      0.0     0.0     2.1     3.0    4.35    2.92     0.0    2.2    0.3    0.05    0.13
 2017 290    17     8     5.1     0.0     5.1    0.00    3.34      0.0     0.0     2.1     3.1    4.34    2.90     0.0    2.2    0.1    0.06    0.16
 2017 291    18     9     5.3     0.0     5.3    0.00    3.32      0.0     0.0     2.1     3.2    4.33    2.89     0.0    2.2    0.2    0.07    0.18
 2017 292    19    10     5.4     0.0     5.4    0.00    3.30      0.0     0.0     2.1     3.3    4.32    2.88     0.0    2.2    0.3    0.08    0.20
 2017 293    20    11     5.7     0.0     5.7    0.00    3.30      0.0     0.0     2.2     3.4    4.32    2.87     0.0    2.2    0.3    0.09    0.23
 2017 294    21    12     5.9     0.0     5.9    0.00    3.30      0.0     0.0     2.4     3.5    4.32    2.85     0.0    2.2    0.3    0.10    0.25
 2017 295    22    13     6.1     0.0     6.1    0.00    3.30      0.0     0.0     2.5     3.6    4.31    2.84     0.0    2.2    0.3    0.11    0.28
 2017 296    23    14     6.3     0.0     6.3    0.00    3.29      0.0     0.0     2.6     3.7    4.31    2.83     0.0    2.2    0.3    0.12    0.30
 2017 297    24    15     6.5     0.0     6.5    0.00    3.29      0.0     0.0     2.7     3.8    4.30    2.81     0.0    2.1    0.3    0.13    0.33
 2017 298    25    16     7.0     0.0     7.0    0.00    3.30      0.0     0.0     3.0     4.0    4.31    2.81     0.0    2.1    0.6    0.14    0.35
 2017 299    26    17     7.4     0.0     7.4    0.00    3.31      0.0     0.0     3.2     4.2    4.31    2.80     0.0    2.1    0.6    0.16    0.37
 2017 300    27    18     7.9     0.0     7.9    0.00    3.31      0.0     0.0     3.5     4.3    4.30    2.79     0.0    2.1    0.6    0.17    0.40
 2017 301    28    19     8.0     0.0     8.0    0.00    3.29      0.0     0.0     3.6     4.4    4.28    2.76     0.0    2.1    0.2    0.19    0.44
 2017 302    29    20     8.5     0.0     8.5    0.00    3.32      0.0     0.0     3.9     4.6    4.31    2.77     0.0    2.1    0.8    0.21    0.46
 2017 303    30    21     9.1     0.0     9.1    0.00    3.33      0.0     0.0     4.3     4.8    4.31    2.77     0.0    2.1    0.8    0.22    0.49
 2017 304    31    22     9.7     0.0     9.7    0.00    3.34      0.0     0.0     4.7     5.1    4.31    2.77     0.0    2.1    0.8    0.24    0.52
 2017 305    32    23    10.2     0.0    10.2    0.00    3.34      0.0     0.0     5.0     5.2    4.30    2.76     0.0    2.1    0.7    0.26    0.55
 2017 306    33    24    10.8     0.0    10.8    0.00    3.35      0.0     0.0     5.3     5.4    4.30    2.75     0.0    2.1    0.8    0.28    0.59
 2017 307    34    25    11.2     0.0    11.2    0.00    3.34      0.0     0.0     5.6     5.6    4.29    2.74     0.0    2.1    0.7    0.31    0.64
 2017 308    35    26    11.8     0.0    11.8    0.00    3.35      0.0     0.0     6.0     5.8    4.29    2.73     0.0    2.1    0.9    0.34    0.69
 2017 309    36    27    12.4     0.0    12.4    0.00    3.35      0.0     0.0     6.4     6.0    4.28    2.72     0.0    2.1    1.0    0.37    0.74
 2017 310    37    28    12.9     0.0    12.9    0.00    3.35      0.0     0.0     6.7     6.2    4.28    2.71     0.0    2.1    0.7    0.40    0.80
 2017 311    38    29    13.6     0.0    13.6    0.00    3.36      0.0     0.0     7.1     6.4    4.28    2.71     0.0    2.1    1.0    0.43    0.86
 2017 312    39    30    14.3     0.0    14.3    0.00    3.36      0.0     0.0     7.6     6.7    4.27    2.71     0.0    2.1    1.1    0.47    0.92
 2017 313    40    31    15.0     0.0    15.0    0.00    3.36      0.0     0.0     8.0     6.9    4.27    2.70     0.0    2.1    1.1    0.50    0.98
 2017 314    41    32    15.1     0.0    15.1    0.00    3.34      0.0     0.0     8.1     7.0    4.24    2.68     0.0    2.1    0.3    0.55    1.05
 2017 315    42    33    16.0     0.0    16.0    0.00    3.37      0.0     0.0     8.7     7.3    4.28    2.69     3.4    2.1    1.3    0.59    1.12
 2017 316    43    34    16.2     0.0    16.2    0.00    3.35      0.0     0.0     8.8     7.4    4.25    2.67     3.4    2.1    0.4    0.64    1.21
 2017 317    44    35    17.0     0.0    17.0    0.00    3.37      0.0     0.0     9.3     7.7    4.27    2.68     3.3    2.1    1.2    0.68    1.28
 2017 318    45    36    17.9     0.0    17.8    0.00    3.37      0.0     0.0     9.9     8.0    4.27    2.67     3.3    2.1    1.3    0.73    1.37
 2017 319    46    37    18.9     0.0    18.9    0.00    3.37      0.0     0.0    10.5     8.4    4.27    2.67     3.3    2.1    1.6    0.78    1.44
 2017 320    47    38    19.9     0.0    19.7    0.00    3.37      0.0     0.0    11.0     8.7    4.26    2.67     3.3    2.1    1.4    0.84    1.53
 2017 321    48    39    21.0     0.0    20.8    0.00    3.38      0.0     0.0    11.7     9.1    4.26    2.67     3.3    2.1    1.7    0.91    1.62
 2017 322    49    40    22.1     0.0    21.8    4.54    3.38      0.0     0.0    12.3     9.5    4.26    2.66     3.3    2.1    1.6    0.97    1.70
 2017 323    50    41    23.0     0.0    22.6    4.55    3.37      0.0     0.0    12.8     9.8    4.25    2.66     3.3    2.1    1.3    1.04    1.80
 2017 324    51    42    24.2     0.0    23.8    4.53    3.39      0.0     0.0    13.5    10.2    4.26    2.66     3.3    2.1    1.9    1.10    1.88
 2017 325    52    43    24.6     0.1    23.9    4.54    3.36      0.0     0.0    13.6    10.3    4.23    2.64     3.3    2.0    0.5    1.19    2.00
 2017 326    53    44    25.7     0.1    24.8    4.56    3.37      0.0     0.0    14.2    10.6    4.25    2.65     3.3    2.1    1.6    1.27    2.11
 2017 327    54    45    26.1     0.1    24.9    4.58    3.35      0.0     0.0    14.3    10.7    4.22    2.63     3.3    2.0    0.6    1.36    2.24
 2017 328    55    46    26.6     0.2    25.2    4.57    3.34      0.0     0.0    14.4    10.7    4.22    2.61     3.3    2.0    0.8    1.45    2.36
 2017 329    56    47    28.1     0.2    26.6    4.56    3.37      0.0     0.0    15.3    11.3    4.24    2.63     3.3    2.0    2.2    1.52    2.46
 2017 330    57    48    29.4     0.2    27.6    4.56    3.37      0.0     0.0    16.0    11.7    4.24    2.63     3.3    2.0    1.9    1.59    2.57
 2017 331    58    49    29.5     0.1    28.8    4.54    3.37      0.0     0.0    16.7    12.1    4.24    2.63     3.3    2.0    2.0    2.74    2.68
 2017 332    59    50    30.7     0.1    29.8    4.56    3.36      0.0     0.0    17.3    12.5    4.23    2.62     3.3    2.0    1.8    2.83    2.81
 2017 333    60    51    31.9     0.1    30.7    4.58    3.36      0.0     0.0    17.9    12.9    4.22    2.62     3.3    2.0    1.7    2.94    2.96
 2017 334    61    52    32.6     0.1    31.8    4.60    3.36      0.0     0.0    18.5    13.3    4.22    2.61     3.3    2.0    1.9    3.53    3.10
 2017 335    62    53    34.0     0.1    32.9    4.59    3.36      0.0     0.0    19.2    13.7    4.22    2.61     3.3    2.0    2.0    3.64    3.25
 2017 336    63    54    35.4     0.2    34.0    4.59    3.36      0.0     0.0    19.9    14.1    4.22    2.61     3.3    2.0    2.0    3.75    3.39
 2017 337    64    55    36.4     0.2    34.7    4.58    3.35      0.0     0.0    20.3    14.4    4.21    2.60     3.3    2.0    1.5    3.87    3.54
 2017 338    65    56    36.9     0.2    35.5    4.58    3.35      0.0     0.0    20.8    14.7    4.21    2.59     3.3    2.0    1.7    4.59    3.70
 2017 339    66    57    38.4     0.2    36.6    4.59    3.35      0.0     0.0    21.5    15.1    4.21    2.59     3.3    2.0    2.1    4.72    3.87
 2017 340    67    58    39.7     0.3    37.5    4.60    3.34      0.0     0.0    22.0    15.4    4.20    2.59     3.3    2.0    1.9    4.86    4.03
 2017 341    68    59    39.2     0.1    37.7    4.61    3.33      0.0     0.0    22.2    15.5    4.19    2.57     3.3    2.0    1.1    6.05    4.22
 2017 342    69    60    40.2     0.2    38.3    4.65    3.32      0.0     0.0    22.5    15.7    4.19    2.57     3.3    2.0    1.5    6.17    4.40
 2017 343    70    61    40.5     0.2    38.4    4.63    3.32      0.0     0.0    22.6    15.8    4.18    2.56     3.3    2.0    0.5    6.27    4.52
 2017 344    71    62    42.5     0.3    40.1    4.63    3.35      0.0     0.0    23.7    16.5    4.21    2.59     3.3    2.0    2.7    6.31    4.58
 2017 345    72    63    43.2     0.1    41.6    4.63    3.35      0.0     0.0    24.6    17.0    4.22    2.59     3.3    2.0    2.3    7.15    4.66
 2017 346    73    64    44.9     0.2    43.1    4.61    3.36      0.0     0.0    25.5    17.6    4.22    2.59     3.3    2.0    2.4    7.21    4.78
 2017 347    74    65    46.7     0.2    44.8    4.61    3.37      0.0     0.0    26.5    18.3    4.22    2.60     3.3    2.0    2.7    7.30    4.88
 2017 348    75    66    47.9     0.2    46.1    4.59    3.37      0.0     0.0    27.3    18.8    4.22    2.60     3.3    2.0    2.1    7.63    5.01
 2017 349    76    67    49.4     0.3    47.1    4.57    3.36      0.0     0.0    27.9    19.2    4.21    2.60     3.3    2.0    2.2    7.82    5.20
 2017 350    77    68    51.1     0.3    48.4    4.56    3.36      0.0     0.0    28.7    19.7    4.21    2.59     3.3    2.0    2.5    8.01    5.39
 2017 351    78    69    52.8     0.4    49.5    4.56    3.36      0.0     0.0    29.4    20.1    4.21    2.59     3.3    2.0    2.4    8.22    5.59
 2017 352    79    70    52.4     0.2    50.3    4.59    3.35      0.0     0.0    29.9    20.4    4.20    2.58     3.3    2.0    2.2   10.03    5.81
 2017 353    80    71    53.9     0.3    51.2    4.60    3.35      0.0     0.0    30.5    20.8    4.20    2.58     3.3    2.0    2.2   10.22    6.04
 2017 354    81    72    55.3     0.4    52.0    4.59    3.34      0.0     0.0    30.9    21.1    4.19    2.57     3.3    2.0    2.0   10.39    6.27
 2017 355    82    73    55.0     0.3    52.6    4.60    3.33      0.0     0.0    31.2    21.3    4.19    2.56     3.3    2.0    1.9   11.93    6.52
 2017 356    83    74    56.5     0.3    53.3    4.59    3.33      0.0     0.0    31.7    21.6    4.19    2.56     3.3    2.0    2.2   12.19    6.75
 2017 357    84    75    58.1     0.5    54.0    4.58    3.33      0.0     0.0    32.1    21.9    4.19    2.55     3.3    2.0    2.2   12.40    6.98
 2017 358    85    76    59.9     0.6    54.9    4.58    3.33      0.0     0.0    32.7    22.2    4.19    2.55     3.3    2.0    2.5   12.61    7.21
 2017 359    86    77    59.5     0.3    56.0    4.55    3.33      0.0     0.0    33.3    22.7    4.19    2.55     3.3    2.0    2.9   14.94    7.43
 2017 360    87    78    60.8     0.4    56.3    4.54    3.32      0.0     0.0    33.5    22.8    4.19    2.55     3.3    2.0    1.7   15.09    7.64
 2017 361    88    79    62.7     0.6    57.1    4.54    3.32      0.0     0.0    34.0    23.1    4.19    2.54     3.3    2.0    2.6   15.31    7.88
 2017 362    89    80    62.2     0.5    57.4    4.54    3.31      0.0     0.0    34.2    23.2    4.19    2.54     3.3    2.0    2.3   17.49    8.13
 2017 363    90    81    63.7     0.6    57.8    4.54    3.31      0.0     0.0    34.4    23.4    4.19    2.53     3.3    1.9    2.0   17.69    8.32
 2017 364    91    82    65.9     0.7    59.2    4.53    3.32      0.0     0.0    35.3    23.9    4.20    2.54     3.3    2.0    3.0   17.83    8.50
 2017 365    92    83    68.3     0.9    60.7    4.53    3.33      0.0     0.0    36.2    24.5    4.21    2.55     3.3    2.0    3.2   17.99    8.67
 2018 001    93    84    68.3     0.9    60.7    4.53    3.33      0.0     0.0    36.2    24.5    4.21    2.55     3.3    2.0    3.2   17.99    8.67

*DSSAT Cropping System Model Ver. 4.8.5.017 pre-release  JUN 28, 2025 01:30:23

*RUN   5        : Brilliance                CRGRO048 UFBA1701    2
 MODEL          : CRGRO048 - Strawberry
 EXPERIMENT     : UFBA1701 SR 2017 BALM STRAWBERRY VARIETY TRIAL
 DATA PATH      : /data/Strawberry/
 TREATMENT  2   : Brilliance                CRGRO048
  
@YEAR DOY   DAS   DAP    CNAD    GNAD    VNAD    GN%D    VN%D     NFXC    NUPC    LNAD    SNAD    LN%D    SN%D    SHND   RN%D   NFXD   SNN0C   SNN1C
 2017 282     9     0     4.4     0.0     4.4    0.00    3.57      0.0     0.0     2.2     2.2    4.40    3.01     0.0    2.3    0.0    0.00    0.02
 2017 283    10     1     4.4     0.0     4.4    0.00    3.57      0.0     0.0     2.2     2.2    4.40    3.01     0.0    2.3    0.0    0.00    0.03
 2017 284    11     2     4.5     0.0     4.5    0.00    3.53      0.0     0.0     2.2     2.3    4.39    2.99     0.0    2.3    0.3    0.01    0.05
 2017 285    12     3     4.6     0.0     4.6    0.00    3.49      0.0     0.0     2.1     2.5    4.38    2.97     0.0    2.3    0.2    0.02    0.06
 2017 286    13     4     4.8     0.0     4.8    0.00    3.46      0.0     0.0     2.1     2.6    4.37    2.96     0.0    2.3    0.2    0.03    0.08
 2017 287    14     5     4.9     0.0     4.9    0.00    3.43      0.0     0.0     2.1     2.8    4.37    2.95     0.0    2.2    0.2    0.04    0.10
 2017 288    15     6     5.0     0.0     5.0    0.00    3.40      0.0     0.0     2.1     2.9    4.36    2.93     0.0    2.2    0.2    0.05    0.12
 2017 289    16     7     5.2     0.0     5.2    0.00    3.37      0.0     0.0     2.1     3.1    4.35    2.92     0.0    2.2    0.3    0.05    0.13
 2017 290    17     8     5.2     0.0     5.2    0.00    3.34      0.0     0.0     2.1     3.1    4.34    2.90     0.0    2.2    0.1    0.06    0.16
 2017 291    18     9     5.3     0.0     5.3    0.00    3.32      0.0     0.0     2.1     3.3    4.33    2.89     0.0    2.2    0.3    0.07    0.18
 2017 292    19    10     5.5     0.0     5.5    0.00    3.30      0.0     0.0     2.1     3.4    4.32    2.88     0.0    2.2    0.3    0.08    0.21
 2017 293    20    11     5.7     0.0     5.7    0.00    3.30      0.0     0.0     2.2     3.5    4.32    2.87     0.0    2.2    0.3    0.09    0.23
 2017 294    21    12     6.0     0.0     6.0    0.00    3.29      0.0     0.0     2.4     3.6    4.32    2.85     0.0    2.2    0.3    0.10    0.26
 2017 295    22    13     6.2     0.0     6.2    0.00    3.29      0.0     0.0     2.5     3.7    4.31    2.84     0.0    2.2    0.3    0.11    0.28
 2017 296    23    14     6.4     0.0     6.4    0.00    3.29      0.0     0.0     2.6     3.8    4.31    2.83     0.0    2.2    0.3    0.12    0.31
 2017 297    24    15     6.7     0.0     6.7    0.00    3.28      0.0     0.0     2.8     3.9    4.30    2.81     0.0    2.1    0.4    0.13    0.33
 2017 298    25    16     7.1     0.0     7.1    0.00    3.30      0.0     0.0     3.0     4.1    4.31    2.81     0.0    2.1    0.7    0.14    0.36
 2017 299    26    17     7.7     0.0     7.7    0.00    3.31      0.0     0.0     3.3     4.3    4.31    2.80     0.0    2.1    0.7    0.16    0.38
 2017 300    27    18     8.1     0.0     8.1    0.00    3.31      0.0     0.0     3.6     4.5    4.31    2.79     0.0    2.1    0.7    0.17    0.41
 2017 301    28    19     8.3     0.0     8.3    0.00    3.29      0.0     0.0     3.7     4.6    4.28    2.77     0.0    2.1    0.2    0.19    0.45
 2017 302    29    20     8.9     0.0     8.9    0.00    3.32      0.0     0.0     4.1     4.8    4.32    2.78     0.0    2.1    0.9    0.21    0.47
 2017 303    30    21     9.6     0.0     9.6    0.00    3.34      0.0     0.0     4.5     5.1    4.32    2.78     0.0    2.1    0.9    0.22    0.50
 2017 304    31    22    10.2     0.0    10.2    0.00    3.35      0.0     0.0     4.9     5.3    4.32    2.77     0.0    2.1    0.9    0.24    0.53
 2017 305    32    23    10.8     0.0    10.8    0.00    3.35      0.0     0.0     5.3     5.5    4.30    2.76     0.0    2.1    0.8    0.26    0.57
 2017 306    33    24    11.4     0.0    11.4    0.00    3.35      0.0     0.0     5.7     5.7    4.30    2.75     0.0    2.1    0.9    0.29    0.61
 2017 307    34    25    11.9     0.0    11.9    0.00    3.35      0.0     0.0     6.0     5.9    4.29    2.74     0.0    2.1    0.8    0.32    0.66
[...]
 2014 319    46    37    24.0     0.0    23.6    4.51    3.39      0.0     0.0    13.4    10.2    4.26    2.67     3.3    2.1    2.0    0.94    1.60
 2014 320    47    38    25.1     0.0    24.5    4.53    3.38      0.0     0.0    13.9    10.6    4.25    2.66     3.3    2.1    1.6    1.02    1.70
 2014 321    48    39    25.6     0.1    24.6    4.56    3.36      0.0     0.0    14.0    10.6    4.23    2.64     3.3    2.0    0.7    1.10    1.82
 2014 322    49    40    26.1     0.1    24.8    4.56    3.36      0.0     0.0    14.1    10.7    4.23    2.64     3.3    2.0    0.6    1.14    1.89
 2014 323    50    41    27.4     0.1    26.0    4.56    3.38      0.0     0.0    14.9    11.1    4.25    2.65     3.3    2.1    1.9    1.18    1.94
 2014 324    51    42    28.7     0.2    27.1    4.56    3.39      0.0     0.0    15.6    11.5    4.25    2.66     3.3    2.1    1.9    1.22    2.02
 2014 325    52    43    29.9     0.2    27.9    4.55    3.38      0.0     0.0    16.1    11.8    4.24    2.65     3.3    2.1    1.6    1.32    2.12
 2014 326    53    44    30.5     0.3    28.0    4.55    3.36      0.0     0.0    16.1    11.8    4.22    2.63     3.3    2.0    0.8    1.42    2.26
 2014 327    54    45    31.6     0.4    28.5    4.58    3.36      0.0     0.0    16.5    12.0    4.22    2.62     3.3    2.0    1.5    1.53    2.40
 2014 328    55    46    32.4     0.4    29.0    4.61    3.35      0.0     0.0    16.8    12.2    4.22    2.62     3.3    2.0    1.4    1.88    2.54
 2014 329    56    47    32.6     0.5    28.9    4.62    3.33      0.0     0.0    16.7    12.1    4.19    2.59     3.3    2.0    0.3    1.98    2.69
 2014 330    57    48    33.4     0.6    29.4    4.60    3.34      0.0     0.0    17.0    12.3    4.21    2.60     3.3    2.0    1.1    2.05    2.79
 2014 331    58    49    35.3     0.7    31.0    4.60    3.36      0.0     0.0    18.0    12.9    4.23    2.61     3.3    2.0    2.6    2.10    2.88
 2014 332    59    50    37.1     0.7    32.6    4.60    3.38      0.0     0.0    19.1    13.6    4.24    2.63     3.3    2.0    2.5    2.14    2.95
 2014 333    60    51    38.8     0.8    34.1    4.59    3.38      0.0     0.0    20.0    14.1    4.24    2.63     3.2    2.0    2.4    2.22    3.05
 2014 334    61    52    40.3     0.9    35.3    4.58    3.38      0.0     0.0    20.7    14.5    4.23    2.62     3.2    2.0    2.2    2.32    3.19
 2014 335    62    53    38.3     0.3    36.2    4.56    3.37      0.0     0.0    21.3    14.9    4.22    2.62     3.2    2.0    1.9    5.09    3.34
 2014 336    63    54    39.3     0.4    36.8    4.56    3.36      0.0     0.0    21.7    15.1    4.21    2.61     3.2    2.0    1.4    5.22    3.51
 2014 337    64    55    40.5     0.4    37.6    4.56    3.36      0.0     0.0    22.2    15.4    4.21    2.60     3.2    2.0    1.8    5.35    3.68
 2014 338    65    56    41.3     0.4    38.7    4.56    3.36      0.0     0.0    22.9    15.8    4.21    2.60     3.2    2.0    2.1    6.10    3.86
 2014 339    66    57    42.6     0.4    39.6    4.56    3.35      0.0     0.0    23.4    16.1    4.20    2.59     3.2    2.0    1.9    6.24    4.04
 2014 340    67    58    44.0     0.5    40.5    4.57    3.35      0.0     0.0    24.0    16.5    4.20    2.58     3.2    2.0    2.0    6.39    4.22
 2014 341    68    59    44.7     0.6    40.8    4.57    3.34      0.0     0.0    24.2    16.6    4.19    2.57     3.2    2.0    1.0    6.53    4.39
 2014 342    69    60    43.2     0.3    40.6    4.55    3.32      0.0     0.0    24.1    16.5    4.18    2.56     3.2    2.0    0.5    8.04    4.54
 2014 343    70    61    45.5     0.3    42.5    4.55    3.36      0.0     0.0    25.2    17.2    4.22    2.59     3.2    2.0    3.1    8.14    4.66
 2014 344    71    62    47.6     0.4    44.4    4.55    3.37      0.0     0.0    26.4    17.9    4.23    2.60     3.2    2.0    3.0    8.19    4.77
 2014 345    72    63    49.2     0.3    46.2    4.55    3.38      0.0     0.0    27.5    18.6    4.23    2.60     3.2    2.0    2.9    8.75    4.87
 2014 346    73    64    50.2     0.4    47.1    4.55    3.38      0.0     0.0    28.1    19.0    4.23    2.61     3.2    2.0    1.5    8.80    4.97
 2014 347    74    65    52.4     0.4    48.9    4.55    3.39      0.0     0.0    29.3    19.7    4.24    2.61     3.2    2.0    3.0    8.91    5.09
 2014 348    75    66    54.5     0.5    50.8    4.55    3.40      0.0     0.0    30.4    20.4    4.24    2.62     3.2    2.0    3.0    9.01    5.22
 2014 349    76    67    56.0     0.4    52.5    4.55    3.40      0.0     0.0    31.5    21.0    4.24    2.62     3.2    2.0    2.9    9.62    5.35
 2014 350    77    68    58.1     0.5    54.2    4.55    3.40      0.0     0.0    32.5    21.7    4.24    2.62     3.2    2.0    2.9    9.75    5.50
 2014 351    78    69    59.8     0.6    55.4    4.54    3.40      0.0     0.0    33.3    22.1    4.24    2.62     3.2    2.0    2.4    9.90    5.69
 2014 352    79    70    60.9     0.4    57.4    4.54    3.41      0.0     0.0    34.5    22.9    4.24    2.63     3.2    2.0    3.2   10.93    5.84
 2014 353    80    71    62.9     0.5    58.9    4.54    3.40      0.0     0.0    35.4    23.5    4.24    2.62     3.2    2.0    2.8   11.08    6.04
 2014 354    81    72    64.8     0.6    60.2    4.53    3.40      0.0     0.0    36.2    23.9    4.23    2.62     3.2    2.0    2.7   11.27    6.27
 2014 355    82    73    64.7     0.6    60.4    4.54    3.38      0.0     0.0    36.3    24.0    4.22    2.60     3.2    2.0    1.4   12.32    6.52
 2014 356    83    74    65.7     0.7    60.4    4.55    3.37      0.0     0.0    36.4    24.0    4.21    2.59     3.2    2.0    1.4   12.55    6.81
 2014 357    84    75    66.9     0.9    60.7    4.57    3.37      0.0     0.0    36.5    24.1    4.21    2.58     3.2    2.0    1.6   12.78    7.09
 2014 358    85    76    65.4     0.6    60.3    4.58    3.35      0.0     0.0    36.3    24.0    4.19    2.57     3.2    2.0    1.0   14.77    7.37
 2014 359    86    77    66.9     0.7    60.9    4.57    3.35      0.0     0.0    36.7    24.2    4.20    2.57     3.2    2.0    2.0   14.95    7.57
 2014 360    87    78    68.3     0.9    61.2    4.56    3.35      0.0     0.0    36.8    24.3    4.20    2.56     3.2    2.0    1.7   15.11    7.78
 2014 361    88    79    69.9     1.1    61.2    4.57    3.34      0.0     0.0    36.8    24.4    4.19    2.55     3.2    2.0    2.0   15.35    8.05
 2014 362    89    80    72.1     1.4    61.6    4.57    3.33      0.0     0.0    37.1    24.5    4.19    2.55     3.2    1.9    2.7   15.60    8.30
 2014 363    90    81    70.7     1.0    61.7    4.56    3.32      0.0     0.0    37.1    24.5    4.18    2.54     3.2    1.9    2.4   18.47    8.56
 2014 364    91    82    70.7     1.3    60.7    4.55    3.30      0.0     0.0    36.6    24.2    4.16    2.51     3.2    1.9    0.0   18.68    8.82
 2014 365    92    83    71.2     1.6    60.3    4.55    3.29      0.0     0.0    36.3    24.0    4.16    2.50     3.2    1.9    0.7   18.88    9.04
 2015 001    93    84    73.0     1.9    60.2    4.54    3.29      0.0     0.0    36.2    24.0    4.17    2.50     3.2    1.9    2.0   19.08    9.28
 2015 002    94    85    70.5     1.5    59.9    4.55    3.28      0.0     0.0    36.0    23.9    4.16    2.49     3.2    1.9    2.1   22.77    9.53
 2015 003    95    86    72.6     1.8    59.8    4.58    3.27      0.0     0.0    36.0    23.9    4.16    2.48     3.2    1.9    2.5   23.04    9.80
 2015 004    96    87    75.0     2.2    60.0    4.59    3.27      0.0     0.0    36.1    23.9    4.15    2.47     3.2    1.9    2.9   23.34   10.06
 2015 005    97    88    71.5     1.6    60.2    4.57    3.26      0.0     0.0    36.2    24.0    4.15    2.47     3.2    1.9    2.3   27.97   10.28
 2015 006    98    89    74.0     1.9    60.8    4.56    3.26      0.0     0.0    36.6    24.3    4.16    2.47     3.2    1.9    3.1   28.16   10.51
 2015 007    99    90    77.1     2.1    62.9    4.56    3.28      0.0     0.0    37.8    25.1    4.18    2.48     3.2    1.9    4.1   28.28   10.67
 2015 008   100    91    75.7     1.4    65.2    4.56    3.30      0.0     0.0    39.2    25.9    4.20    2.50     3.2    1.9    3.8   31.78   10.79
 2015 009   101    92    77.8     1.5    66.4    4.56    3.31      0.0     0.0    40.0    26.4    4.20    2.50     3.2    1.9    2.6   31.87   10.94
 2015 010   102    93    80.4     1.7    68.1    4.56    3.31      0.0     0.0    41.0    27.1    4.20    2.51     3.2    1.9    3.5   32.09   11.09
 2015 011   103    94    82.5     2.0    68.1    4.55    3.30      0.0     0.0    41.0    27.1    4.19    2.50     3.2    1.9    2.6   32.40   11.33
 2015 012   104    95    78.7     1.5    67.1    4.56    3.28      0.0     0.0    40.4    26.7    4.17    2.47     3.2    1.9    0.6   36.12   11.62
 2015 013   105    96    81.2     1.8    67.4    4.56    3.29      0.0     0.0    40.6    26.8    4.19    2.48     3.2    1.9    3.1   36.36   11.88
 2015 014   106    97    82.0     2.2    66.5    4.55    3.27      0.0     0.0    40.0    26.5    4.17    2.46     3.2    1.9    0.9   36.57   12.11
 2015 015   107    98    77.6     1.6    66.1    4.54    3.26      0.0     0.0    39.7    26.3    4.17    2.46     3.2    1.9    0.8   40.91   12.29
 2015 016   108    99    80.8     1.8    68.2    4.54    3.29      0.0     0.0    41.0    27.1    4.20    2.48     3.2    1.9    4.2   41.06   12.48
 2015 017   109   100    83.8     2.0    70.1    4.54    3.30      0.0     0.0    42.2    27.9    4.21    2.49     3.2    1.9    3.9   41.23   12.67
 2015 018   110   101    86.3     2.3    71.3    4.53    3.30      0.0     0.0    42.9    28.3    4.21    2.49     3.2    1.9    3.2   41.45   12.90
 2015 019   111   102    82.8     1.3    73.6    4.53    3.32      0.0     0.0    44.3    29.2    4.23    2.50     3.2    1.9    4.5   47.40   13.10
 2015 020   112   103    84.1     1.5    73.5    4.53    3.31      0.0     0.0    44.3    29.2    4.22    2.49     3.2    1.9    1.7   47.64   13.31
 2015 021   113   104    87.1     1.9    74.2    4.53    3.31      0.0     0.0    44.7    29.5    4.23    2.49     3.2    1.9    3.7   47.97   13.56
 2015 022   114   105    84.4     1.1    73.9    4.53    3.31      0.0     0.0    44.5    29.4    4.23    2.49     3.2    1.9    3.4   52.81   13.83
 2015 023   115   106    86.6     1.6    72.9    4.54    3.29      0.0     0.0    43.9    29.0    4.21    2.47     3.2    1.9    2.4   53.08   14.12
 2015 024   116   107    89.5     2.0    73.0    4.54    3.29      0.0     0.0    43.9    29.1    4.22    2.47     3.3    1.9    3.4   53.28   14.33
 2015 025   117   108    93.0     2.3    74.8    4.54    3.30      0.0     0.0    45.1    29.8    4.23    2.48     3.3    1.9    4.7   53.38   14.48
 2015 026   118   109    92.8     1.9    75.5    4.54    3.30      0.0     0.0    45.4    30.0    4.23    2.47     3.3    1.9    4.1   56.59   14.69
 2015 027   119   110    96.3     2.2    77.0    4.54    3.30      0.0     0.0    46.4    30.6    4.23    2.48     3.3    1.9    4.7   56.80   14.84
 2015 028   120   111    99.9     2.5    78.7    4.54    3.30      0.0     0.0    47.4    31.3    4.22    2.48     3.3    1.9    4.8   56.94   15.01
 2015 029   121   112   103.4     2.8    80.0    4.54    3.30      0.0     0.0    48.2    31.8    4.22    2.48     3.3    1.9    4.6   57.08   15.20
 2015 030   122   113   106.5     3.2    81.0    4.54    3.30      0.0     0.0    48.8    32.2    4.21    2.48     3.3    1.9    4.2   57.36   15.40
 2015 031   123   114   109.9     3.6    81.8    4.54    3.29      0.0     0.0    49.3    32.5    4.21    2.47     3.3    1.9    4.6   57.81   15.61
 2015 032   124   115   113.4     4.2    82.4    4.53    3.28      0.0     0.0    49.6    32.7    4.20    2.47     3.3    1.9    4.5   58.07   15.86
 2015 033   125   116   105.4     3.0    81.6    4.53    3.27      0.0     0.0    49.1    32.5    4.19    2.46     3.2    1.9    2.7   66.90   16.12
 2015 034   126   117   108.6     3.3    82.9    4.53    3.27      0.0     0.0    49.9    33.0    4.19    2.46     3.2    1.9    4.9   67.13   16.29
 2015 035   127   118   111.7     4.0    82.1    4.53    3.26      0.0     0.0    49.4    32.7    4.18    2.44     3.2    1.9    3.3   67.48   16.56
 2015 036   128   119   102.2     2.8    81.1    4.52    3.24      0.0     0.0    48.8    32.3    4.17    2.43     3.2    1.9    1.2   76.45   16.81
 2015 037   129   120   105.8     3.2    82.0    4.52    3.24      0.0     0.0    49.4    32.7    4.16    2.43     3.2    1.9    5.9   76.61   17.01
 2015 038   130   121   109.7     3.7    82.9    4.52    3.24      0.0     0.0    49.9    33.0    4.16    2.42     3.2    1.9    5.0   76.86   17.24
 2015 039   131   122   113.6     4.3    83.1    4.52    3.23      0.0     0.0    50.0    33.1    4.15    2.42     3.2    1.8    4.8   77.13   17.48
 2015 040   132   123   103.9     3.1    81.9    4.52    3.21      0.0     0.0    49.2    32.7    4.14    2.40     3.2    1.8    0.8   85.87   17.74
 2015 041   133   124   107.6     3.6    82.5    4.52    3.21      0.0     0.0    49.6    32.9    4.13    2.40     3.2    1.8    6.3   86.03   17.94
 2015 042   134   125   111.8     4.1    83.4    4.52    3.20      0.0     0.0    50.1    33.3    4.13    2.39     3.2    1.8    5.4   86.27   18.14
 2015 043   135   126   110.0     3.5    84.6    4.52    3.20      0.0     0.0    50.9    33.7    4.13    2.39     3.2    1.8    5.3   91.24   18.32
 2015 044   136   127   113.9     3.8    86.9    4.53    3.21      0.0     0.0    52.3    34.6    4.13    2.40     3.2    1.8    5.5   91.32   18.46
 2015 045   137   128   117.7     4.2    88.7    4.54    3.21      0.0     0.0    53.4    35.3    4.13    2.40     3.2    1.8    5.2   91.61   18.60
 2015 046   138   129   121.7     4.8    89.3    4.53    3.21      0.0     0.0    53.8    35.6    4.12    2.40     3.2    1.8    5.1   92.05   18.83
 2015 047   139   130   115.9     3.8    88.8    4.53    3.20      0.0     0.0    53.4    35.4    4.12    2.39     3.2    1.8    4.5  100.36   19.09
 2015 048   140   131   119.0     4.7    87.6    4.53    3.18      0.0     0.0    52.7    34.9    4.10    2.38     3.2    1.8    3.4  100.66   19.38
 2015 049   141   132   123.1     5.2    89.4    4.53    3.18      0.0     0.0    53.7    35.6    4.10    2.38     3.2    1.8    6.2  100.78   19.56
 2015 050   142   133   120.1     4.0    92.2    4.53    3.19      0.0     0.0    55.5    36.7    4.11    2.39     3.2    1.8    5.2  105.95   19.65
 2015 051   143   134   123.3     4.2    94.1    4.54    3.20      0.0     0.0    56.6    37.5    4.11    2.40     3.2    1.8    4.2  106.12   19.75
 2015 052   144   135   127.3     4.8    94.9    4.54    3.20      0.0     0.0    57.1    37.8    4.11    2.39     3.2    1.8    4.7  106.28   19.97
 2015 053   145   136   130.6     5.8    93.7    4.54    3.18      0.0     0.0    56.3    37.3    4.10    2.38     3.2    1.8    4.0  107.07   20.29
 2015 054   146   137   122.1     4.2    92.4    4.54    3.17      0.0     0.0    55.5    36.8    4.08    2.37     3.2    1.8    4.5  117.04   20.62
 2015 055   147   138   125.3     5.3    90.9    4.55    3.15      0.0     0.0    54.6    36.3    4.07    2.35     3.2    1.8    3.5  117.36   20.96
 2015 056   148   139   127.4     6.3    89.5    4.55    3.13      0.0     0.0    53.7    35.8    4.06    2.33     3.2    1.8    2.3  117.66   21.29
 2015 057   149   140   112.6     3.6    88.3    4.54    3.12      0.0     0.0    53.0    35.3    4.04    2.32     3.2    1.8    2.0  130.81   21.57
 2015 058   150   141   113.9     4.0    87.6    4.54    3.11      0.0     0.0    52.5    35.1    4.04    2.31     3.2    1.8    1.7  131.01   21.79
 2015 059   151   142   113.9     4.6    86.5    4.53    3.09      0.0     0.0    51.8    34.7    4.02    2.30     3.2    1.7    0.0  131.22   22.04
 2015 060   152   143   116.4     5.4    85.8    4.55    3.08      0.0     0.0    51.4    34.4    4.01    2.28     3.2    1.7    5.5  131.55   22.35
 2015 061   153   144   101.9     2.5    85.7    4.59    3.06      0.0     0.0    51.3    34.4    4.00    2.27     3.2    1.7    3.8  145.40   22.66
 2015 062   154   145   104.9     3.1    86.0    4.59    3.05      0.0     0.0    51.5    34.6    3.99    2.27     3.2    1.7    4.3  145.81   22.95
 2015 063   155   146   108.1     3.7    86.3    4.59    3.05      0.0     0.0    51.6    34.7    3.98    2.26     3.2    1.7    4.5  146.23   23.23
 2015 064   156   147    98.1     1.4    85.7    4.61    3.03      0.0     0.0    51.2    34.5    3.97    2.25     3.2    1.7    4.0  156.86   23.53
 2015 065   157   148   101.3     1.8    85.1    4.60    3.02      0.0     0.0    50.8    34.3    3.96    2.23     3.2    1.7    3.9  157.25   23.80
 2015 066   158   149   104.5     2.2    84.9    4.58    3.01      0.0     0.0    50.7    34.2    3.95    2.23     3.2    1.7    3.9  157.54   24.05
 2015 067   159   150   108.5     2.9    84.6    4.57    3.00      0.0     0.0    50.5    34.1    3.94    2.22     3.2    1.7    4.8  157.85   24.32
 2015 068   160   151   108.2     2.8    84.0    4.58    2.99      0.0     0.0    50.1    33.9    3.93    2.20     3.2    1.7    4.7  161.68   24.59
 2015 069   161   152   112.2     3.6    82.9    4.60    2.97      0.0     0.0    49.4    33.5    3.91    2.19     3.2    1.7    4.6  162.16   24.87
 2015 070   162   153   115.5     4.5    81.9    4.62    2.95      0.0     0.0    48.8    33.1    3.90    2.18     3.2    1.6    3.6  162.41   25.15
 2015 071   163   154   111.8     3.8    80.9    4.64    2.94      0.0     0.0    48.1    32.8    3.89    2.16     3.2    1.6    4.7  168.86   25.42
 2015 072   164   155   115.4     4.6    79.9    4.65    2.92      0.0     0.0    47.5    32.4    3.87    2.15     3.2    1.6    4.6  169.67   25.70
 2015 073   165   156   119.4     5.5    78.9    4.66    2.91      0.0     0.0    46.9    32.1    3.86    2.14     3.2    1.6    4.6  170.07   25.96
 2015 074   166   157   123.5     6.4    78.2    4.65    2.89      0.0     0.0    46.4    31.8    3.85    2.13     3.2    1.6    5.0  170.51   26.21
 2015 075   167   158   112.4     4.4    77.8    4.65    2.88      0.0     0.0    46.1    31.7    3.83    2.12     3.2    1.6    5.2  183.23   26.46
 2015 076   168   159   116.8     5.2    77.6    4.64    2.87      0.0     0.0    46.0    31.6    3.82    2.11     3.2    1.6    5.5  183.65   26.71
 2015 077   169   160   120.7     6.1    77.1    4.65    2.86      0.0     0.0    45.7    31.5    3.81    2.10     3.2    1.6    4.8  184.08   26.95
 2015 078   170   161   106.2     3.7    76.4    4.65    2.84      0.0     0.0    45.2    31.2    3.80    2.08     3.2    1.6    4.6  199.47   27.20
 2015 079   171   162   110.5     4.5    76.0    4.64    2.83      0.0     0.0    44.9    31.1    3.79    2.07     3.2    1.6    5.4  199.86   27.44
 2015 080   172   163   114.8     5.3    75.5    4.64    2.82      0.0     0.0    44.6    30.9    3.78    2.06     3.2    1.6    5.1  200.23   27.66
 2015 081   173   164   118.9     6.3    74.8    4.63    2.80      0.0     0.0    44.2    30.7    3.76    2.05     3.2    1.6    4.8  200.63   27.89
 2015 082   174   165   102.6     3.9    72.9    4.62    2.78      0.0     0.0    42.8    30.1    3.73    2.03     3.2    1.5    2.6  216.07   28.14
 2015 083   175   166   105.4     4.7    71.2    4.62    2.75      0.0     0.0    41.7    29.6    3.70    2.02     3.2    1.5    4.6  217.22   28.38
 2015 084   176   167   108.3     5.6    70.3    4.62    2.73      0.0     0.0    40.9    29.4    3.68    2.01     3.2    1.5    4.6  218.32   28.60
 2015 085   177   168    99.5     4.2    69.7    4.63    2.71      0.0     0.0    40.5    29.3    3.66    2.00     3.2    1.5    4.6  228.58   28.82
 2015 086   178   169   100.7     4.8    68.4    4.62    2.69      0.0     0.0    39.5    28.9    3.63    1.98     3.2    1.5    2.4  229.65   29.05
 2015 087   179   170   103.7     5.3    70.0    4.61    2.69      0.0     0.0    40.3    29.7    3.63    1.99     3.2    1.5    6.4  230.70   29.21
