*Soil Organic Matter daily output file

*DSSAT Cropping System Model Ver. 4.8.5.017 pre-release  JUN 28, 2025 01:29:39

*RUN   1        : Radiance                  CRGRO048 UFBA1401    1
 MODEL          : CRGRO048 - Strawberry
 EXPERIMENT     : UFBA1401 SR 2014 BALM STRAWBERRY VARIETY TRIAL
 DATA PATH      : /data/Strawberry/
 TREATMENT  1   : Radiance                  CRGRO048
  
@YEAR DOY   DAS    OMAC    SCDD    SOCD    SC0D    SCTD   SOMCT    LCTD    ONAC    SNDD    SOND    SN0D    SNTD   SOMNT    LNTD
 2014 273     0       0    6258   25593       0   25593   25593     0.0    0.00     0.0     0.0    0.00     0.0     0.0    0.00
 2014 274     1       0    6258   25592       0   25592   25592     0.0    0.00     0.0     0.0    0.00     0.0     0.0    0.00
 2014 275     2       0    6257   25591       0   25591   25591     0.0    0.00     0.0     0.0    0.00     0.0     0.0    0.00
 2014 276     3       0    6257   25590       0   25590   25590     0.0    0.00     0.0     0.0    0.00     0.0     0.0    0.00
 2014 277     4       0    6257   25589       0   25589   25589     0.0    0.00     0.0     0.0    0.00     0.0     0.0    0.00
 2014 278     5       0    6257   25588       0   25588   25588     0.0    0.00     0.0     0.0    0.00     0.0     0.0    0.00
 2014 279     6       0    6256   25587       0   25587   25587     0.0    0.00     0.0     0.0    0.00     0.0     0.0    0.00
 2014 280     7       0    6256   25586       0   25586   25586     0.0    0.00     0.0     0.0    0.00     0.0     0.0    0.00
 2014 281     8       0    6256   25585       0   25585   25585     0.0    0.00     0.0     0.0    0.00     0.0     0.0    0.00
 2014 282     9       0    6256   25584       0   25584   25584     0.0    0.00     0.0     0.0    0.00     0.0     0.0    0.00
 2014 283    10       0    6256   25584       0   25584   25583     0.3    0.00     0.0     0.0    0.00     0.0     0.0    0.00
 2014 284    11       0    6255   25583       0   25583   25583     0.6    0.00     0.0     0.0    0.00     0.0     0.0    0.00
 2014 285    12       0    6255   25583       0   25582   25582     0.8    0.00     0.0     0.0    0.00     0.0     0.0    0.00
 2014 286    13       0    6255   25582       1   25582   25581     1.1    0.00     0.0     0.0    0.00     0.0     0.0    0.00
 2014 287    14       0    6255   25582       1   25581   25580     1.4    0.00     0.0     0.0    0.00     0.0     0.0    0.00
 2014 288    15       0    6254   25581       1   25580   25579     1.8    0.00     0.0     0.0    0.00     0.0     0.0    0.00
 2014 289    16       0    6254   25581       1   25580   25578     2.1    0.00     0.0     0.0    0.00     0.0     0.0    0.00
 2014 290    17       0    6254   25581       2   25579   25577     2.5    0.00     0.0     0.0    0.00     0.0     0.0    0.00
 2014 291    18       0    6254   25581       2   25579   25576     2.9    0.00     0.0     0.0    0.00     0.0     0.0    0.00
 2014 292    19       0    6253   25580       2   25578   25575     3.2    0.00     0.0     0.0    0.00     0.0     0.0    0.00
 2014 293    20       0    6253   25580       2   25578   25574     3.7    0.00     0.0     0.0    0.00     0.0     0.0    0.00
 2014 294    21       0    6253   25580       3   25578   25573     4.1    0.00     0.0     0.0    0.00     0.0     0.0    0.00
 2014 295    22       0    6253   25580       3   25577   25573     4.7    0.00     0.0     0.0    0.00     0.0     0.0    0.00
 2014 296    23       0    6252   25580       3   25577   25572     5.2    0.00     0.0     0.0    0.00     0.0     0.0    0.00
 2014 297    24       0    6252   25580       4   25577   25571     5.7    0.00     0.0     0.0    0.00     0.0     0.0    0.00
 2014 298    25       0    6252   25580       4   25576   25570     6.3    0.00     0.0     0.0    0.00     0.0     0.0    0.00
 2014 299    26       0    6252   25580       4   25576   25569     6.8    0.00     0.0     0.0    0.00     0.0     0.0    0.00
 2014 300    27       0    6252   25580       5   25576   25568     7.4    0.00     0.0     0.0    0.00     0.0     0.0    0.00
 2014 301    28       0    6251   25581       5   25575   25568     7.9    0.00     0.0     0.0    0.00     0.0     0.0    0.00
 2014 302    29       0    6251   25581       6   25575   25567     8.6    0.00     0.0     0.0    0.00     0.0     0.0    0.00
 2014 303    30       0    6251   25581       6   25575   25566     9.3    0.00     0.0     0.0    0.00     0.0     0.0    0.00
 2014 304    31       0    6251   25582       7   25575   25565    10.1    0.00     0.0     0.0    0.00     0.0     0.0    0.00
 2014 305    32       0    6251   25583       7   25575   25564    10.9    0.00     0.0     0.0    0.00     0.0     0.0    0.00
 2014 306    33       0    6250   25583       8   25575   25563    11.5    0.00     0.0     0.0    0.00     0.0     0.0    0.00
 2014 307    34       0    6250   25583       8   25575   25563    12.0    0.00     0.0     0.0    0.00     0.0     0.0    0.00
 2014 308    35       0    6250   25584       9   25575   25562    12.8    0.00     0.0     0.0    0.00     0.0     0.0    0.00
 2014 309    36       0    6250   25585      10   25575   25561    13.7    0.00     0.0     0.0    0.00     0.0     0.0    0.00
 2014 310    37       0    6250   25586      11   25575   25561    14.8    0.00     0.0     0.0    0.00     0.0     0.0    0.00
 2014 311    38       0    6250   25588      12   25576   25560    16.0    0.00     0.0     0.0    0.00     0.0     0.0    0.00
 2014 312    39       0    6249   25589      13   25576   25559    17.2    0.00     0.0     0.0    0.00     0.0     0.0    0.00
 2014 313    40       0    6249   25590      14   25577   25558    18.3    0.00     0.0     0.0    0.00     0.0     0.0    0.00
 2014 314    41       0    6249   25592      15   25577   25558    19.6    0.00     0.0     0.0    0.00     0.0     0.0    0.00
 2014 315    42       0    6249   25594      16   25578   25557    20.9    0.00     0.0     0.0    0.00     0.0     0.0    0.00
 2014 316    43       0    6249   25596      17   25578   25556    22.3    0.00     0.0     0.0    0.00     0.0     0.0    0.00
 2014 317    44       0    6248   25598      19   25579   25555    23.7    0.00     0.0     0.0    0.00     0.0     0.0    0.00
 2014 318    45       0    6248   25600      20   25580   25555    25.0    0.00     0.0     0.0    0.00     0.0     0.0    0.00
 2014 319    46       0    6248   25602      21   25580   25554    26.5    0.00     0.0     0.0    0.00     0.0     0.0    0.00
 2014 320    47       0    6248   25604      23   25581   25553    27.9    0.00     0.0     0.0    0.00     0.0     0.0    0.00
 2014 321    48       0    6248   25607      24   25582   25552    29.7    0.00     0.0     0.0    0.00     0.0     0.0    0.00
 2014 322    49       0    6248   25610      27   25583   25552    31.7    0.00     0.0     0.0    0.00     0.0     0.0    0.00
 2014 323    50       0    6247   25612      28   25584   25551    33.0    0.00     0.0     0.0    0.00     0.0     0.0    0.00
 2014 324    51       0    6247   25613      28   25584   25550    33.9    0.00     0.0     0.0    0.00     0.0     0.0    0.00
 2014 325    52       0    6247   25614      30   25585   25550    35.2    0.00     0.0     0.0    0.00     0.0     0.0    0.00
 2014 326    53       0    6247   25618      31   25586   25549    37.1    0.00     0.0     0.0    0.00     0.0     0.0    0.00
 2014 327    54       0    6247   25622      34   25588   25548    39.6    0.00     0.0     0.0    0.00     0.0     0.0    0.00
 2014 328    55       0    6247   25626      36   25590   25548    41.9    0.00     0.0     0.0    0.00     0.0     0.0    0.00
 2014 329    56       0    6247   25629      38   25591   25547    44.3    0.00     0.0     0.0    0.00     0.0     0.0    0.00
 2014 330    57       0    6246   25634      41   25593   25546    46.9    0.00     0.0     0.0    0.00     0.0     0.0    0.00
 2014 331    58       0    6246   25636      42   25594   25545    48.8    0.00     0.0     0.0    0.00     0.0     0.0    0.00
 2014 332    59       0    6246   25638      44   25595   25544    50.4    0.00     0.0     0.0    0.00     0.0     0.0    0.00
 2014 333    60       0    6246   25640      45   25595   25544    51.7    0.00     0.0     0.0    0.00     0.0     0.0    0.00
 2014 334    61       0    6246   25643      47   25597   25543    53.6    0.00     0.0     0.0    0.00     0.0     0.0    0.00
 2014 335    62       0    6245   25647      49   25598   25542    56.1    0.00     0.0     0.0    0.00     0.0     0.0    0.00
 2014 336    63       0    6245   25652      52   25601   25542    58.9    0.00     0.0     0.0    0.00     0.0     0.0    0.00
 2014 337    64       0    6245   25658      55   25603   25541    62.0    0.00     0.0     0.0    0.00     0.0     0.0    0.00
 2014 338    65       0    6245   25664      58   25605   25540    65.2    0.00     0.0     0.0    0.00     0.0     0.0    0.00
 2014 339    66       0    6245   25669      62   25608   25539    68.3    0.00     0.0     0.0    0.00     0.0     0.0    0.00
 2014 340    67       0    6245   25675      65   25610   25539    71.7    0.00     0.0     0.0    0.00     0.0     0.0    0.00
 2014 341    68       0    6244   25681      68   25613   25538    75.0    0.00     0.0     0.0    0.00     0.0     0.0    0.00
 2014 342    69       0    6244   25687      72   25615   25537    78.3    0.00     0.0     0.0    0.00     0.0     0.0    0.00
 2014 343    70       0    6244   25692      75   25617   25536    81.1    0.00     0.0     0.0    0.00     0.0     0.0    0.00
 2014 344    71       0    6244   25696      77   25619   25535    83.5    0.00     0.0     0.0    0.00     0.0     0.0    0.00
 2014 345    72       0    6244   25699      79   25620   25535    85.4    0.00     0.0     0.0    0.00     0.0     0.0    0.00
 2014 346    73       0    6243   25702      81   25621   25534    87.3    0.00     0.0     0.0    0.00     0.0     0.0    0.00
 2014 347    74       0    6243   25705      82   25623   25534    89.1    0.00     0.0     0.0    0.00     0.0     0.0    0.00
 2014 348    75       0    6243   25709      84   25624   25533    91.3    0.00     0.0     0.0    0.00     0.0     0.0    0.00
 2014 349    76       0    6243   25713      87   25626   25532    93.6    0.00     0.0     0.0    0.00     0.0     0.0    0.00
 2014 350    77       0    6243   25717      89   25628   25532    96.0    0.00     0.0     0.0    0.00     0.0     0.0    0.00
 2014 351    78       0    6243   25722      92   25630   25531    98.9    0.00     0.0     0.0    0.00     0.0     0.0    0.00
 2014 352    79       0    6243   25729      96   25633   25531   102.3    0.00     0.0     0.0    0.00     0.0     0.0    0.00
 2014 353    80       0    6243   25734      98   25635   25530   105.1    0.00     0.0     0.0    0.00     0.0     0.0    0.00
 2014 354    81       0    6243   25740     102   25638   25530   108.7    0.00     0.0     0.0    0.00     0.0     0.0    0.00
 2014 355    82       0    6242   25748     107   25642   25529   112.8    0.00     0.0     0.0    0.00     0.0     0.0    0.00
 2014 356    83       0    6242   25758     112   25646   25528   117.5    0.00     0.0     0.0    0.00     0.0     0.0    0.00
 2014 357    84       0    6242   25768     117   25650   25528   122.7    0.00     0.0     0.0    0.00     0.0     0.0    0.00
 2014 358    85       0    6242   25777     122   25655   25527   127.8    0.00     0.0     0.0    0.00     0.0     0.0    0.00
 2014 359    86       0    6242   25787     128   25659   25526   133.0    0.00     0.0     0.0    0.00     0.0     0.0    0.00
 2014 360    87       0    6242   25795     133   25662   25525   136.8    0.00     0.0     0.0    0.00     0.0     0.0    0.00
 2014 361    88       0    6241   25803     137   25665   25524   140.9    0.00     0.0     0.0    0.00     0.0     0.0    0.00
 2014 362    89       0    6241   25813     143   25670   25524   146.0    0.00     0.0     0.0    0.00     0.0     0.0    0.00
 2014 363    90       0    6241   25823     149   25674   25523   151.0    0.00     0.0     0.0    0.00     0.0     0.0    0.00
 2014 364    91       0    6241   25832     154   25678   25522   155.9    0.00     0.0     0.0    0.00     0.0     0.0    0.00
 2014 365    92       0    6241   25843     160   25682   25521   161.2    0.00     0.0     0.0    0.00     0.0     0.0    0.00
 2015 001    93       0    6240   25852     166   25686   25521   165.8    0.00     0.0     0.0    0.00     0.0     0.0    0.00

*DSSAT Cropping System Model Ver. 4.8.5.017 pre-release  JUN 28, 2025 01:29:44

*RUN   2        : Radiance                  CRGRO048 UFBA1601    1
 MODEL          : CRGRO048 - Strawberry
 EXPERIMENT     : UFBA1601 SR 2016 BALM STRAWBERRY VARIETY TRIAL
 DATA PATH      : /data/Strawberry/
 TREATMENT  1   : Radiance                  CRGRO048
  
@YEAR DOY   DAS    OMAC    SCDD    SOCD    SC0D    SCTD   SOMCT    LCTD    ONAC    SNDD    SOND    SN0D    SNTD   SOMNT    LNTD
 2016 273     0       0    6258   25593       0   25593   25593     0.0    0.00     0.0     0.0    0.00     0.0     0.0    0.00
 2016 274     1       0    6258   25592       0   25592   25592     0.0    0.00     0.0     0.0    0.00     0.0     0.0    0.00
 2016 275     2       0    6257   25591       0   25591   25591     0.0    0.00     0.0     0.0    0.00     0.0     0.0    0.00
 2016 276     3       0    6257   25590       0   25590   25590     0.0    0.00     0.0     0.0    0.00     0.0     0.0    0.00
 2016 277     4       0    6257   25589       0   25589   25589     0.0    0.00     0.0     0.0    0.00     0.0     0.0    0.00
 2016 278     5       0    6257   25588       0   25588   25588     0.0    0.00     0.0     0.0    0.00     0.0     0.0    0.00
 2016 279     6       0    6256   25587       0   25587   25587     0.0    0.00     0.0     0.0    0.00     0.0     0.0    0.00
 2016 280     7       0    6256   25586       0   25586   25586     0.0    0.00     0.0     0.0    0.00     0.0     0.0    0.00
 2016 281     8       0    6256   25585       0   25585   25585     0.0    0.00     0.0     0.0    0.00     0.0     0.0    0.00
 2016 282     9       0    6256   25584       0   25584   25584     0.0    0.00     0.0     0.0    0.00     0.0     0.0    0.00
 2016 283    10       0    6255   25583       0   25583   25583     0.3    0.00     0.0     0.0    0.00     0.0     0.0    0.00
 2016 284    11       0    6255   25583       0   25582   25582     0.6    0.00     0.0     0.0    0.00     0.0     0.0    0.00
 2016 285    12       0    6255   25582       0   25582   25581     0.9    0.00     0.0     0.0    0.00     0.0     0.0    0.00
 2016 286    13       0    6255   25582       1   25581   25580     1.2    0.00     0.0     0.0    0.00     0.0     0.0    0.00
 2016 287    14       0    6254   25582       1   25581   25579     1.5    0.00     0.0     0.0    0.00     0.0     0.0    0.00
 2016 288    15       0    6254   25581       1   25580   25578     1.8    0.00     0.0     0.0    0.00     0.0     0.0    0.00
 2016 289    16       0    6254   25581       1   25579   25577     2.2    0.00     0.0     0.0    0.00     0.0     0.0    0.00
 2016 290    17       0    6254   25581       2   25579   25576     2.6    0.00     0.0     0.0    0.00     0.0     0.0    0.00
 2016 291    18       0    6253   25580       2   25578   25575     3.0    0.00     0.0     0.0    0.00     0.0     0.0    0.00
 2016 292    19       0    6253   25580       2   25578   25574     3.4    0.00     0.0     0.0    0.00     0.0     0.0    0.00
 2016 293    20       0    6253   25580       2   25577   25573     3.8    0.00     0.0     0.0    0.00     0.0     0.0    0.00
 2016 294    21       0    6253   25579       3   25577   25572     4.3    0.00     0.0     0.0    0.00     0.0     0.0    0.00
 2016 295    22       0    6252   25579       3   25576   25571     4.7    0.00     0.0     0.0    0.00     0.0     0.0    0.00
 2016 296    23       0    6252   25579       3   25576   25571     5.2    0.00     0.0     0.0    0.00     0.0     0.0    0.00
 2016 297    24       0    6252   25579       4   25575   25570     5.7    0.00     0.0     0.0    0.00     0.0     0.0    0.00
 2016 298    25       0    6252   25579       4   25575   25569     6.1    0.00     0.0     0.0    0.00     0.0     0.0    0.00
 2016 299    26       0    6251   25579       4   25575   25568     6.7    0.00     0.0     0.0    0.00     0.0     0.0    0.00
 2016 300    27       0    6251   25579       5   25575   25567     7.3    0.00     0.0     0.0    0.00     0.0     0.0    0.00
 2016 301    28       0    6251   25580       5   25574   25567     7.9    0.00     0.0     0.0    0.00     0.0     0.0    0.00
 2016 302    29       0    6251   25580       6   25574   25566     8.6    0.00     0.0     0.0    0.00     0.0     0.0    0.00
 2016 303    30       0    6251   25581       6   25574   25565     9.4    0.00     0.0     0.0    0.00     0.0     0.0    0.00
 2016 304    31       0    6250   25581       7   25574   25564    10.1    0.00     0.0     0.0    0.00     0.0     0.0    0.00
 2016 305    32       0    6250   25581       8   25574   25563    10.9    0.00     0.0     0.0    0.00     0.0     0.0    0.00
 2016 306    33       0    6250   25582       8   25574   25562    11.8    0.00     0.0     0.0    0.00     0.0     0.0    0.00
 2016 307    34       0    6250   25583       9   25574   25561    12.7    0.00     0.0     0.0    0.00     0.0     0.0    0.00
 2016 308    35       0    6249   25584      10   25574   25560    13.6    0.00     0.0     0.0    0.00     0.0     0.0    0.00
 2016 309    36       0    6249   25584      10   25574   25559    14.6    0.00     0.0     0.0    0.00     0.0     0.0    0.00
 2016 310    37       0    6249   25586      11   25574   25559    15.7    0.00     0.0     0.0    0.00     0.0     0.0    0.00
 2016 311    38       0    6249   25587      12   25575   25558    16.9    0.00     0.0     0.0    0.00     0.0     0.0    0.00
 2016 312    39       0    6249   25588      13   25575   25557    18.1    0.00     0.0     0.0    0.00     0.0     0.0    0.00
 2016 313    40       0    6248   25590      14   25575   25556    19.4    0.00     0.0     0.0    0.00     0.0     0.0    0.00
 2016 314    41       0    6248   25591      15   25576   25555    20.7    0.00     0.0     0.0    0.00     0.0     0.0    0.00
 2016 315    42       0    6248   25593      17   25576   25554    22.1    0.00     0.0     0.0    0.00     0.0     0.0    0.00
 2016 316    43       0    6248   25595      18   25577   25553    23.6    0.00     0.0     0.0    0.00     0.0     0.0    0.00
 2016 317    44       0    6248   25597      19   25578   25553    25.0    0.00     0.0     0.0    0.00     0.0     0.0    0.00
 2016 318    45       0    6247   25599      21   25578   25552    26.6    0.00     0.0     0.0    0.00     0.0     0.0    0.00
 2016 319    46       0    6247   25601      22   25579   25551    28.1    0.00     0.0     0.0    0.00     0.0     0.0    0.00
 2016 320    47       0    6247   25604      24   25580   25550    30.1    0.00     0.0     0.0    0.00     0.0     0.0    0.00
 2016 321    48       0    6247   25607      26   25581   25549    31.9    0.00     0.0     0.0    0.00     0.0     0.0    0.00
 2016 322    49       0    6247   25610      27   25582   25549    33.6    0.00     0.0     0.0    0.00     0.0     0.0    0.00
 2016 323    50       0    6246   25612      29   25583   25548    35.4    0.00     0.0     0.0    0.00     0.0     0.0    0.00
 2016 324    51       0    6246   25616      31   25584   25547    37.4    0.00     0.0     0.0    0.00     0.0     0.0    0.00
 2016 325    52       0    6246   25619      33   25586   25546    39.5    0.00     0.0     0.0    0.00     0.0     0.0    0.00
 2016 326    53       0    6246   25621      34   25587   25546    41.2    0.00     0.0     0.0    0.00     0.0     0.0    0.00
 2016 327    54       0    6246   25623      36   25588   25545    42.7    0.00     0.0     0.0    0.00     0.0     0.0    0.00
 2016 328    55       0    6246   25626      37   25589   25544    44.5    0.00     0.0     0.0    0.00     0.0     0.0    0.00
 2016 329    56       0    6245   25630      39   25590   25544    46.8    0.00     0.0     0.0    0.00     0.0     0.0    0.00
 2016 330    57       0    6245   25634      42   25592   25543    49.6    0.00     0.0     0.0    0.00     0.0     0.0    0.00
 2016 331    58       0    6245   25639      45   25595   25542    52.5    0.00     0.0     0.0    0.00     0.0     0.0    0.00
 2016 332    59       0    6245   25644      48   25597   25541    55.4    0.00     0.0     0.0    0.00     0.0     0.0    0.00
 2016 333    60       0    6245   25649      50   25599   25541    58.1    0.00     0.0     0.0    0.00     0.0     0.0    0.00
 2016 334    61       0    6244   25654      53   25601   25540    61.1    0.00     0.0     0.0    0.00     0.0     0.0    0.00
 2016 335    62       0    6244   25659      56   25603   25539    64.3    0.00     0.0     0.0    0.00     0.0     0.0    0.00
 2016 336    63       0    6244   25665      59   25606   25538    67.9    0.00     0.0     0.0    0.00     0.0     0.0    0.00
 2016 337    64       0    6244   25672      63   25609   25537    71.4    0.00     0.0     0.0    0.00     0.0     0.0    0.00
 2016 338    65       0    6244   25677      66   25611   25537    74.7    0.00     0.0     0.0    0.00     0.0     0.0    0.00
 2016 339    66       0    6243   25683      69   25614   25536    77.8    0.00     0.0     0.0    0.00     0.0     0.0    0.00
 2016 340    67       0    6243   25689      73   25616   25535    81.4    0.00     0.0     0.0    0.00     0.0     0.0    0.00
 2016 341    68       0    6243   25696      77   25619   25534    85.2    0.00     0.0     0.0    0.00     0.0     0.0    0.00
 2016 342    69       0    6243   25703      81   25623   25533    89.3    0.00     0.0     0.0    0.00     0.0     0.0    0.00
 2016 343    70       0    6243   25710      84   25625   25532    93.1    0.00     0.0     0.0    0.00     0.0     0.0    0.00
 2016 344    71       0    6242   25716      88   25628   25532    96.6    0.00     0.0     0.0    0.00     0.0     0.0    0.00
 2016 345    72       0    6242   25721      91   25630   25531    99.4    0.00     0.0     0.0    0.00     0.0     0.0    0.00
 2016 346    73       0    6242   25727      94   25633   25530   102.5    0.00     0.0     0.0    0.00     0.0     0.0    0.00
 2016 347    74       0    6242   25734      98   25636   25529   106.4    0.00     0.0     0.0    0.00     0.0     0.0    0.00
 2016 348    75       0    6242   25741     102   25639   25529   110.7    0.00     0.0     0.0    0.00     0.0     0.0    0.00
 2016 349    76       0    6242   25749     106   25643   25528   114.9    0.00     0.0     0.0    0.00     0.0     0.0    0.00
 2016 350    77       0    6241   25758     111   25646   25527   119.3    0.00     0.0     0.0    0.00     0.0     0.0    0.00
 2016 351    78       0    6241   25766     116   25650   25526   123.5    0.00     0.0     0.0    0.00     0.0     0.0    0.00
 2016 352    79       0    6241   25773     120   25653   25526   127.4    0.00     0.0     0.0    0.00     0.0     0.0    0.00
 2016 353    80       0    6241   25781     124   25656   25525   131.7    0.00     0.0     0.0    0.00     0.0     0.0    0.00
 2016 354    81       0    6241   25789     129   25660   25524   136.5    0.00     0.0     0.0    0.00     0.0     0.0    0.00
 2016 355    82       0    6240   25798     134   25664   25523   141.1    0.00     0.0     0.0    0.00     0.0     0.0    0.00
 2016 356    83       0    6240   25808     139   25668   25522   146.2    0.00     0.0     0.0    0.00     0.0     0.0    0.00
 2016 357    84       0    6240   25817     145   25672   25521   150.5    0.00     0.0     0.0    0.00     0.0     0.0    0.00
 2016 358    85       0    6240   25825     150   25675   25521   154.7    0.00     0.0     0.0    0.00     0.0     0.0    0.00
 2016 359    86       0    6240   25833     155   25679   25520   159.1    0.00     0.0     0.0    0.00     0.0     0.0    0.00
 2016 360    87       0    6239   25843     160   25683   25519   163.6    0.00     0.0     0.0    0.00     0.0     0.0    0.00
 2016 361    88       0    6239   25851     165   25687   25518   168.5    0.00     0.0     0.0    0.00     0.0     0.0    0.00
 2016 362    89       0    6239   25861     170   25691   25517   173.5    0.00     0.0     0.0    0.00     0.0     0.0    0.00
 2016 363    90       0    6239   25871     176   25695   25517   178.4    0.00     0.0     0.0    0.00     0.0     0.0    0.00
 2016 364    91       0    6239   25881     182   25699   25516   183.2    0.00     0.0     0.0    0.00     0.0     0.0    0.00
 2016 365    92       0    6238   25891     188   25703   25515   188.1    0.00     0.0     0.0    0.00     0.0     0.0    0.00
 2016 366    93       0    6238   25895     191   25705   25514   190.5    0.00     0.0     0.0    0.00     0.0     0.0    0.00
 2017 001    94       0    6238   25900     193   25707   25513   193.6    0.00     0.0     0.0    0.00     0.0     0.0    0.00
 2017 002    95       0    6238   25910     199   25711   25513   198.3    0.00     0.0     0.0    0.00     0.0     0.0    0.00
 2017 003    96       0    6238   25920     205   25715   25512   203.5    0.00     0.0     0.0    0.00     0.0     0.0    0.00
 2017 004    97       0    6237   25932     211   25720   25511   209.1    0.00     0.0     0.0    0.00     0.0     0.0    0.00
 2017 005    98       0    6237   25942     218   25724   25511   213.9    0.00     0.0     0.0    0.00     0.0     0.0    0.00
 2017 006    99       0    6237   25953     225   25729   25510   218.8    0.00     0.0     0.0    0.00     0.0     0.0    0.00
 2017 007   100       0    6237   25962     229   25732   25509   223.5    0.00     0.0     0.0    0.00     0.0     0.0    0.00
 2017 008   101       0    6237   25968     233   25735   25508   227.0    0.00     0.0     0.0    0.00     0.0     0.0    0.00
 2017 009   102       0    6237   25970     234   25736   25508   228.4    0.00     0.0     0.0    0.00     0.0     0.0    0.00
 2017 010   103       0    6236   25976     237   25738   25507   231.4    0.00     0.0     0.0    0.00     0.0     0.0    0.00
 2017 011   104       0    6236   25984     241   25742   25507   235.7    0.00     0.0     0.0    0.00     0.0     0.0    0.00
 2017 012   105       0    6236   25994     248   25747   25506   240.8    0.00     0.0     0.0    0.00     0.0     0.0    0.00
 2017 013   106       0    6236   26007     255   25752   25505   246.3    0.00     0.0     0.0    0.00     0.0     0.0    0.00
 2017 014   107       0    6236   26021     264   25757   25505   252.5    0.00     0.0     0.0    0.00     0.0     0.0    0.00
 2017 015   108       0    6236   26035     273   25762   25504   258.5    0.00     0.0     0.0    0.00     0.0     0.0    0.00
 2017 016   109       0    6236   26047     279   25768   25503   264.3    0.00     0.0     0.0    0.00     0.0     0.0    0.00
 2017 017   110       0    6235   26059     287   25773   25502   270.1    0.00     0.0     0.0    0.00     0.0     0.0    0.00
 2017 018   111       0    6235   26071     294   25778   25502   275.8    0.00     0.0     0.0    0.00     0.0     0.0    0.00
 2017 019   112       0    6235   26082     300   25782   25501   281.2    0.00     0.0     0.0    0.00     0.0     0.0    0.00
 2017 020   113       0    6235   26092     305   25787   25500   286.5    0.00     0.0     0.0    0.00     0.0     0.0    0.00
 2017 021   114       0    6235   26104     312   25792   25499   292.1    0.00     0.0     0.0    0.00     0.0     0.0    0.00
 2017 022   115       0    6235   26116     320   25797   25499   297.9    0.00     0.0     0.0    0.00     0.0     0.0    0.00
 2017 023   116       0    6234   26129     327   25802   25498   304.2    0.00     0.0     0.0    0.00     0.0     0.0    0.00
 2017 024   117       0    6234   26141     334   25807   25497   309.9    0.00     0.0     0.0    0.00     0.0     0.0    0.00
 2017 025   118       0    6234   26152     341   25811   25496   314.6    0.00     0.0     0.0    0.00     0.0     0.0    0.00
 2017 026   119       0    6234   26162     347   25815   25496   319.4    0.00     0.0     0.0    0.00     0.0     0.0    0.00
 2017 027   120       0    6234   26175     355   25821   25495   325.7    0.00     0.0     0.0    0.00     0.0     0.0    0.00
 2017 028   121       0    6233   26186     361   25825   25494   330.7    0.00     0.0     0.0    0.00     0.0     0.0    0.00
 2017 029   122       0    6233   26191     364   25828   25494   334.0    0.00     0.0     0.0    0.00     0.0     0.0    0.00
 2017 030   123       0    6233   26196     366   25830   25493   337.1    0.00     0.0     0.0    0.00     0.0     0.0    0.00
 2017 031   124       0    6233   26203     370   25833   25492   340.4    0.00     0.0     0.0    0.00     0.0     0.0    0.00
 2017 032   125       0    6233   26211     375   25836   25492   344.0    0.00     0.0     0.0    0.00     0.0     0.0    0.00
 2017 033   126       0    6233   26218     379   25840   25491   348.3    0.00     0.0     0.0    0.00     0.0     0.0    0.00
 2017 034   127       0    6233   26231     386   25844   25491   353.7    0.00     0.0     0.0    0.00     0.0     0.0    0.00
 2017 035   128       0    6233   26244     394   25849   25490   359.3    0.00     0.0     0.0    0.00     0.0     0.0    0.00
 2017 036   129       0    6232   26259     404   25854   25489   365.0    0.00     0.0     0.0    0.00     0.0     0.0    0.00
 2017 037   130       0    6232   26272     413   25860   25489   370.8    0.00     0.0     0.0    0.00     0.0     0.0    0.00
 2017 038   131       0    6232   26284     419   25864   25488   376.3    0.00     0.0     0.0    0.00     0.0     0.0    0.00
 2017 039   132       0    6232   26297     427   25870   25487   382.2    0.00     0.0     0.0    0.00     0.0     0.0    0.00
 2017 040   133       0    6232   26311     435   25875   25487   388.5    0.00     0.0     0.0    0.00     0.0     0.0    0.00
 2017 041   134       0    6232   26324     443   25880   25486   394.3    0.00     0.0     0.0    0.00     0.0     0.0    0.00
 2017 042   135       0    6231   26335     451   25884   25485   399.0    0.00     0.0     0.0    0.00     0.0     0.0    0.00
 2017 043   136       0    6231   26345     457   25888   25484   403.9    0.00     0.0     0.0    0.00     0.0     0.0    0.00
 2017 044   137       0    6231   26357     464   25893   25484   409.1    0.00     0.0     0.0    0.00     0.0     0.0    0.00
 2017 045   138       0    6231   26369     471   25898   25483   414.9    0.00     0.0     0.0    0.00     0.0     0.0    0.00
 2017 046   139       0    6231   26382     479   25903   25482   420.8    0.00     0.0     0.0    0.00     0.0     0.0    0.00
 2017 047   140       0    6230   26394     486   25909   25482   427.0    0.00     0.0     0.0    0.00     0.0     0.0    0.00
 2017 048   141       0    6230   26402     490   25912   25481   431.0    0.00     0.0     0.0    0.00     0.0     0.0    0.00
 2017 049   142       0    6230   26410     495   25915   25480   434.8    0.00     0.0     0.0    0.00     0.0     0.0    0.00
 2017 050   143       0    6230   26420     501   25919   25480   439.8    0.00     0.0     0.0    0.00     0.0     0.0    0.00
 2017 051   144       0    6230   26433     508   25924   25479   445.5    0.00     0.0     0.0    0.00     0.0     0.0    0.00
 2017 052   145       0    6230   26444     515   25929   25478   450.9    0.00     0.0     0.0    0.00     0.0     0.0    0.00
 2017 053   146       0    6230   26456     522   25934   25478   456.6    0.00     0.0     0.0    0.00     0.0     0.0    0.00
 2017 054   147       0    6229   26467     528   25939   25477   462.1    0.00     0.0     0.0    0.00     0.0     0.0    0.00
 2017 055   148       0    6229   26477     534   25943   25476   467.3    0.00     0.0     0.0    0.00     0.0     0.0    0.00
 2017 056   149       0    6229   26488     539   25948   25475   473.0    0.00     0.0     0.0    0.00     0.0     0.0    0.00
 2017 057   150       0    6229   26502     548   25953   25475   478.6    0.00     0.0     0.0    0.00     0.0     0.0    0.00
 2017 058   151       0    6229   26511     553   25958   25474   483.7    0.00     0.0     0.0    0.00     0.0     0.0    0.00
 2017 059   152       0    6228   26522     560   25962   25473   488.8    0.00     0.0     0.0    0.00     0.0     0.0    0.00
 2017 060   153       0    6228   26533     567   25966   25472   494.0    0.00     0.0     0.0    0.00     0.0     0.0    0.00
 2017 061   154       0    6228   26545     574   25971   25472   499.3    0.00     0.0     0.0    0.00     0.0     0.0    0.00
 2017 062   155       0    6228   26557     582   25975   25471   504.7    0.00     0.0     0.0    0.00     0.0     0.0    0.00
 2017 063   156       0    6228   26569     589   25980   25470   509.8    0.00     0.0     0.0    0.00     0.0     0.0    0.00
 2017 064   157       0    6227   26580     596   25983   25469   514.2    0.00     0.0     0.0    0.00     0.0     0.0    0.00
 2017 065   158       0    6227   26592     604   25988   25469   519.7    0.00     0.0     0.0    0.00     0.0     0.0    0.00
 2017 066   159       0    6227   26603     610   25993   25468   524.9    0.00     0.0     0.0    0.00     0.0     0.0    0.00
 2017 067   160       0    6227   26613     616   25997   25467   529.8    0.00     0.0     0.0    0.00     0.0     0.0    0.00
 2017 068   161       0    6227   26624     623   26002   25466   535.2    0.00     0.0     0.0    0.00     0.0     0.0    0.00
 2017 069   162       0    6227   26636     630   26006   25466   540.4    0.00     0.0     0.0    0.00     0.0     0.0    0.00
 2017 070   163       0    6226   26649     638   26011   25465   546.0    0.00     0.0     0.0    0.00     0.0     0.0    0.00
 2017 071   164       0    6226   26661     646   26016   25464   551.3    0.00     0.0     0.0    0.00     0.0     0.0    0.00
 2017 072   165       0    6226   26674     653   26021   25464   557.1    0.00     0.0     0.0    0.00     0.0     0.0    0.00
 2017 073   166       0    6226   26686     661   26026   25463   562.9    0.00     0.0     0.0    0.00     0.0     0.0    0.00
 2017 074   167       0    6226   26697     667   26030   25462   567.9    0.00     0.0     0.0    0.00     0.0     0.0    0.00
 2017 075   168       0    6225   26701     669   26032   25461   570.5    0.00     0.0     0.0    0.00     0.0     0.0    0.00
 2017 076   169       0    6225   26707     673   26034   25461   573.3    0.00     0.0     0.0    0.00     0.0     0.0    0.00
 2017 077   170       0    6225   26714     676   26037   25460   577.2    0.00     0.0     0.0    0.00     0.0     0.0    0.00

*DSSAT Cropping System Model Ver. 4.8.5.017 pre-release  JUN 28, 2025 01:29:54

*RUN   3        : Brilliance                CRGRO048 UFBA1601    2
 MODEL          : CRGRO048 - Strawberry
 EXPERIMENT     : UFBA1601 SR 2016 BALM STRAWBERRY VARIETY TRIAL
 DATA PATH      : /data/Strawberry/
 TREATMENT  2   : Brilliance                CRGRO048
  
@YEAR DOY   DAS    OMAC    SCDD    SOCD    SC0D    SCTD   SOMCT    LCTD    ONAC    SNDD    SOND    SN0D    SNTD   SOMNT    LNTD
 2016 273     0       0    6258   25593       0   25593   25593     0.0    0.00     0.0     0.0    0.00     0.0     0.0    0.00
 2016 274     1       0    6258   25592       0   25592   25592     0.0    0.00     0.0     0.0    0.00     0.0     0.0    0.00
 2016 275     2       0    6257   25591       0   25591   25591     0.0    0.00     0.0     0.0    0.00     0.0     0.0    0.00
 2016 276     3       0    6257   25590       0   25590   25590     0.0    0.00     0.0     0.0    0.00     0.0     0.0    0.00
 2016 277     4       0    6257   25589       0   25589   25589     0.0    0.00     0.0     0.0    0.00     0.0     0.0    0.00
 2016 278     5       0    6257   25588       0   25588   25588     0.0    0.00     0.0     0.0    0.00     0.0     0.0    0.00
 2016 279     6       0    6256   25587       0   25587   25587     0.0    0.00     0.0     0.0    0.00     0.0     0.0    0.00
 2016 280     7       0    6256   25586       0   25586   25586     0.0    0.00     0.0     0.0    0.00     0.0     0.0    0.00
 2016 281     8       0    6256   25585       0   25585   25585     0.0    0.00     0.0     0.0    0.00     0.0     0.0    0.00
 2016 282     9       0    6256   25584       0   25584   25584     0.0    0.00     0.0     0.0    0.00     0.0     0.0    0.00
 2016 283    10       0    6255   25583       0   25583   25583     0.3    0.00     0.0     0.0    0.00     0.0     0.0    0.00
 2016 284    11       0    6255   25583       0   25582   25582     0.6    0.00     0.0     0.0    0.00     0.0     0.0    0.00
 2016 285    12       0    6255   25582       0   25582   25581     0.9    0.00     0.0     0.0    0.00     0.0     0.0    0.00
 2016 286    13       0    6255   25582       1   25581   25580     1.2    0.00     0.0     0.0    0.00     0.0     0.0    0.00
 2016 287    14       0    6254   25582       1   25581   25579     1.5    0.00     0.0     0.0    0.00     0.0     0.0    0.00
 2016 288    15       0    6254   25581       1   25580   25578     1.8    0.00     0.0     0.0    0.00     0.0     0.0    0.00
 2016 289    16       0    6254   25581       1   25579   25577     2.2    0.00     0.0     0.0    0.00     0.0     0.0    0.00
 2016 290    17       0    6254   25581       2   25579   25576     2.6    0.00     0.0     0.0    0.00     0.0     0.0    0.00
 2016 291    18       0    6253   25580       2   25578   25575     3.0    0.00     0.0     0.0    0.00     0.0     0.0    0.00
 2016 292    19       0    6253   25580       2   25578   25574     3.4    0.00     0.0     0.0    0.00     0.0     0.0    0.00
 2016 293    20       0    6253   25580       2   25577   25573     3.9    0.00     0.0     0.0    0.00     0.0     0.0    0.00
 2016 294    21       0    6253   25579       3   25577   25572     4.3    0.00     0.0     0.0    0.00     0.0     0.0    0.00
 2016 295    22       0    6252   25579       3   25576   25571     4.8    0.00     0.0     0.0    0.00     0.0     0.0    0.00
 2016 296    23       0    6252   25579       3   25576   25571     5.3    0.00     0.0     0.0    0.00     0.0     0.0    0.00
 2016 297    24       0    6252   25579       4   25575   25570     5.8    0.00     0.0     0.0    0.00     0.0     0.0    0.00
 2016 298    25       0    6252   25579       4   25575   25569     6.3    0.00     0.0     0.0    0.00     0.0     0.0    0.00
 2016 299    26       0    6251   25579       4   25575   25568     6.8    0.00     0.0     0.0    0.00     0.0     0.0    0.00
 2016 300    27       0    6251   25580       5   25575   25567     7.4    0.00     0.0     0.0    0.00     0.0     0.0    0.00
 2016 301    28       0    6251   25580       5   25575   25567     8.1    0.00     0.0     0.0    0.00     0.0     0.0    0.00
 2016 302    29       0    6251   25581       6   25575   25566     8.9    0.00     0.0     0.0    0.00     0.0     0.0    0.00
 2016 303    30       0    6251   25581       7   25575   25565     9.7    0.00     0.0     0.0    0.00     0.0     0.0    0.00
 2016 304    31       0    6250   25582       7   25574   25564    10.5    0.00     0.0     0.0    0.00     0.0     0.0    0.00
 2016 305    32       0    6250   25582       8   25574   25563    11.3    0.00     0.0     0.0    0.00     0.0     0.0    0.00
 2016 306    33       0    6250   25583       8   25574   25562    12.2    0.00     0.0     0.0    0.00     0.0     0.0    0.00
 2016 307    34       0    6250   25584       9   25574   25561    13.2    0.00     0.0     0.0    0.00     0.0     0.0    0.00
 2016 308    35       0    6249   25584      10   25575   25560    14.2    0.00     0.0     0.0    0.00     0.0     0.0    0.00
 2016 309    36       0    6249   25586      11   25575   25559    15.3    0.00     0.0     0.0    0.00     0.0     0.0    0.00
 2016 310    37       0    6249   25587      12   25575   25559    16.4    0.00     0.0     0.0    0.00     0.0     0.0    0.00
 2016 311    38       0    6249   25588      13   25575   25558    17.7    0.00     0.0     0.0    0.00     0.0     0.0    0.00
 2016 312    39       0    6249   25590      14   25576   25557    19.0    0.00     0.0     0.0    0.00     0.0     0.0    0.00
 2016 313    40       0    6248   25591      15   25576   25556    20.4    0.00     0.0     0.0    0.00     0.0     0.0    0.00
 2016 314    41       0    6248   25593      16   25577   25555    21.8    0.00     0.0     0.0    0.00     0.0     0.0    0.00
 2016 315    42       0    6248   25595      18   25578   25554    23.4    0.00     0.0     0.0    0.00     0.0     0.0    0.00
 2016 316    43       0    6248   25597      19   25578   25553    25.0    0.00     0.0     0.0    0.00     0.0     0.0    0.00
 2016 317    44       0    6248   25599      20   25579   25553    26.6    0.00     0.0     0.0    0.00     0.0     0.0    0.00
 2016 318    45       0    6247   25602      22   25580   25552    28.2    0.00     0.0     0.0    0.00     0.0     0.0    0.00
 2016 319    46       0    6247   25605      24   25581   25551    30.0    0.00     0.0     0.0    0.00     0.0     0.0    0.00
 2016 320    47       0    6247   25608      26   25582   25550    32.2    0.00     0.0     0.0    0.00     0.0     0.0    0.00
 2016 321    48       0    6247   25611      28   25583   25549    34.0    0.00     0.0     0.0    0.00     0.0     0.0    0.00
 2016 322    49       0    6247   25614      30   25585   25549    36.0    0.00     0.0     0.0    0.00     0.0     0.0    0.00
 2016 323    50       0    6246   25618      32   25586   25548    37.9    0.00     0.0     0.0    0.00     0.0     0.0    0.00
 2016 324    51       0    6246   25621      34   25587   25547    40.1    0.00     0.0     0.0    0.00     0.0     0.0    0.00
 2016 325    52       0    6246   25625      36   25589   25546    42.4    0.00     0.0     0.0    0.00     0.0     0.0    0.00
 2016 326    53       0    6246   25628      38   25590   25546    44.2    0.00     0.0     0.0    0.00     0.0     0.0    0.00
 2016 327    54       0    6246   25630      39   25591   25545    45.8    0.00     0.0     0.0    0.00     0.0     0.0    0.00
 2016 328    55       0    6246   25633      41   25592   25544    47.7    0.00     0.0     0.0    0.00     0.0     0.0    0.00
 2016 329    56       0    6245   25637      43   25594   25544    50.3    0.00     0.0     0.0    0.00     0.0     0.0    0.00
 2016 330    57       0    6245   25642      46   25596   25543    53.2    0.00     0.0     0.0    0.00     0.0     0.0    0.00
 2016 331    58       0    6245   25648      49   25599   25542    56.4    0.00     0.0     0.0    0.00     0.0     0.0    0.00
 2016 332    59       0    6245   25654      53   25601   25541    59.5    0.00     0.0     0.0    0.00     0.0     0.0    0.00
 2016 333    60       0    6245   25658      55   25603   25541    62.4    0.00     0.0     0.0    0.00     0.0     0.0    0.00
 2016 334    61       0    6244   25664      58   25605   25540    65.6    0.00     0.0     0.0    0.00     0.0     0.0    0.00
 2016 335    62       0    6244   25670      62   25608   25539    69.1    0.00     0.0     0.0    0.00     0.0     0.0    0.00
 2016 336    63       0    6244   25677      66   25611   25538    73.0    0.00     0.0     0.0    0.00     0.0     0.0    0.00
 2016 337    64       0    6244   25684      70   25614   25537    76.7    0.00     0.0     0.0    0.00     0.0     0.0    0.00
 2016 338    65       0    6244   25690      74   25617   25537    80.2    0.00     0.0     0.0    0.00     0.0     0.0    0.00
 2016 339    66       0    6243   25697      77   25619   25536    83.6    0.00     0.0     0.0    0.00     0.0     0.0    0.00
 2016 340    67       0    6243   25704      82   25622   25535    87.4    0.00     0.0     0.0    0.00     0.0     0.0    0.00
 2016 341    68       0    6243   25711      86   25626   25534    91.4    0.00     0.0     0.0    0.00     0.0     0.0    0.00
 2016 342    69       0    6243   25719      90   25629   25533    95.6    0.00     0.0     0.0    0.00     0.0     0.0    0.00
 2016 343    70       0    6243   25726      94   25632   25532    99.6    0.00     0.0     0.0    0.00     0.0     0.0    0.00
 2016 344    71       0    6242   25733      98   25635   25532   103.3    0.00     0.0     0.0    0.00     0.0     0.0    0.00
 2016 345    72       0    6242   25739     102   25637   25531   106.2    0.00     0.0     0.0    0.00     0.0     0.0    0.00
 2016 346    73       0    6242   25745     105   25640   25530   109.5    0.00     0.0     0.0    0.00     0.0     0.0    0.00
 2016 347    74       0    6242   25752     109   25643   25529   113.5    0.00     0.0     0.0    0.00     0.0     0.0    0.00
 2016 348    75       0    6242   25760     114   25647   25529   117.9    0.00     0.0     0.0    0.00     0.0     0.0    0.00
 2016 349    76       0    6242   25769     118   25650   25528   122.2    0.00     0.0     0.0    0.00     0.0     0.0    0.00
 2016 350    77       0    6241   25778     124   25654   25527   126.8    0.00     0.0     0.0    0.00     0.0     0.0    0.00
 2016 351    78       0    6241   25786     129   25657   25526   131.1    0.00     0.0     0.0    0.00     0.0     0.0    0.00
 2016 352    79       0    6241   25794     134   25661   25526   135.0    0.00     0.0     0.0    0.00     0.0     0.0    0.00
 2016 353    80       0    6241   25803     139   25664   25525   139.4    0.00     0.0     0.0    0.00     0.0     0.0    0.00
 2016 354    81       0    6241   25812     144   25668   25524   144.1    0.00     0.0     0.0    0.00     0.0     0.0    0.00
 2016 355    82       0    6240   25821     149   25672   25523   148.7    0.00     0.0     0.0    0.00     0.0     0.0    0.00
 2016 356    83       0    6240   25831     155   25676   25522   153.8    0.00     0.0     0.0    0.00     0.0     0.0    0.00
 2016 357    84       0    6240   25841     161   25679   25521   158.1    0.00     0.0     0.0    0.00     0.0     0.0    0.00
 2016 358    85       0    6240   25849     166   25683   25521   162.2    0.00     0.0     0.0    0.00     0.0     0.0    0.00
 2016 359    86       0    6240   25857     171   25686   25520   166.5    0.00     0.0     0.0    0.00     0.0     0.0    0.00
 2016 360    87       0    6239   25867     177   25690   25519   171.0    0.00     0.0     0.0    0.00     0.0     0.0    0.00
 2016 361    88       0    6239   25875     181   25694   25518   175.7    0.00     0.0     0.0    0.00     0.0     0.0    0.00
 2016 362    89       0    6239   25885     188   25698   25517   180.5    0.00     0.0     0.0    0.00     0.0     0.0    0.00
 2016 363    90       0    6239   25896     194   25702   25517   185.1    0.00     0.0     0.0    0.00     0.0     0.0    0.00
 2016 364    91       0    6239   25907     201   25705   25516   189.7    0.00     0.0     0.0    0.00     0.0     0.0    0.00
 2016 365    92       0    6238   25918     209   25709   25515   194.3    0.00     0.0     0.0    0.00     0.0     0.0    0.00
 2016 366    93       0    6238   25922     211   25711   25514   196.6    0.00     0.0     0.0    0.00     0.0     0.0    0.00
 2017 001    94       0    6238   25926     214   25713   25513   199.5    0.00     0.0     0.0    0.00     0.0     0.0    0.00
 2017 002    95       0    6238   25936     219   25717   25513   203.9    0.00     0.0     0.0    0.00     0.0     0.0    0.00
 2017 003    96       0    6238   25947     226   25721   25512   208.7    0.00     0.0     0.0    0.00     0.0     0.0    0.00
 2017 004    97       0    6237   25958     233   25725   25511   213.9    0.00     0.0     0.0    0.00     0.0     0.0    0.00
 2017 005    98       0    6237   25969     240   25729   25511   218.3    0.00     0.0     0.0    0.00     0.0     0.0    0.00
 2017 006    99       0    6237   25982     249   25733   25510   222.8    0.00     0.0     0.0    0.00     0.0     0.0    0.00
 2017 007   100       0    6237   25989     253   25736   25509   227.0    0.00     0.0     0.0    0.00     0.0     0.0    0.00
 2017 008   101       0    6237   25996     257   25738   25508   230.1    0.00     0.0     0.0    0.00     0.0     0.0    0.00
 2017 009   102       0    6237   25997     258   25739   25508   231.4    0.00     0.0     0.0    0.00     0.0     0.0    0.00
 2017 010   103       0    6236   26003     262   25741   25507   234.2    0.00     0.0     0.0    0.00     0.0     0.0    0.00
 2017 011   104       0    6236   26010     266   25745   25507   238.1    0.00     0.0     0.0    0.00     0.0     0.0    0.00
 2017 012   105       0    6236   26021     272   25749   25506   242.7    0.00     0.0     0.0    0.00     0.0     0.0    0.00
 2017 013   106       0    6236   26034     281   25753   25505   247.6    0.00     0.0     0.0    0.00     0.0     0.0    0.00
 2017 014   107       0    6236   26048     290   25758   25505   253.2    0.00     0.0     0.0    0.00     0.0     0.0    0.00
 2017 015   108       0    6236   26062     300   25762   25504   258.4    0.00     0.0     0.0    0.00     0.0     0.0    0.00
 2017 016   109       0    6236   26073     306   25767   25503   263.6    0.00     0.0     0.0    0.00     0.0     0.0    0.00
 2017 017   110       0    6235   26083     312   25771   25502   268.6    0.00     0.0     0.0    0.00     0.0     0.0    0.00
 2017 018   111       0    6235   26096     321   25775   25502   273.6    0.00     0.0     0.0    0.00     0.0     0.0    0.00
 2017 019   112       0    6235   26107     327   25779   25501   278.3    0.00     0.0     0.0    0.00     0.0     0.0    0.00
 2017 020   113       0    6235   26115     332   25783   25500   282.8    0.00     0.0     0.0    0.00     0.0     0.0    0.00
 2017 021   114       0    6235   26125     338   25787   25499   287.6    0.00     0.0     0.0    0.00     0.0     0.0    0.00
 2017 022   115       0    6235   26136     345   25791   25499   292.5    0.00     0.0     0.0    0.00     0.0     0.0    0.00
 2017 023   116       0    6234   26147     351   25796   25498   297.7    0.00     0.0     0.0    0.00     0.0     0.0    0.00
 2017 024   117       0    6234   26158     358   25800   25497   302.5    0.00     0.0     0.0    0.00     0.0     0.0    0.00
 2017 025   118       0    6234   26167     364   25803   25496   306.5    0.00     0.0     0.0    0.00     0.0     0.0    0.00
 2017 026   119       0    6234   26177     371   25806   25496   310.5    0.00     0.0     0.0    0.00     0.0     0.0    0.00
 2017 027   120       0    6234   26187     376   25811   25495   315.6    0.00     0.0     0.0    0.00     0.0     0.0    0.00
 2017 028   121       0    6233   26195     381   25814   25494   319.8    0.00     0.0     0.0    0.00     0.0     0.0    0.00
 2017 029   122       0    6233   26200     384   25816   25494   322.5    0.00     0.0     0.0    0.00     0.0     0.0    0.00
 2017 030   123       0    6233   26203     385   25818   25493   325.0    0.00     0.0     0.0    0.00     0.0     0.0    0.00
 2017 031   124       0    6233   26209     389   25820   25492   327.6    0.00     0.0     0.0    0.00     0.0     0.0    0.00
 2017 032   125       0    6233   26217     395   25822   25492   330.6    0.00     0.0     0.0    0.00     0.0     0.0    0.00
 2017 033   126       0    6233   26223     398   25825   25491   334.1    0.00     0.0     0.0    0.00     0.0     0.0    0.00
 2017 034   127       0    6233   26235     405   25829   25491   338.4    0.00     0.0     0.0    0.00     0.0     0.0    0.00
 2017 035   128       0    6233   26246     413   25833   25490   342.8    0.00     0.0     0.0    0.00     0.0     0.0    0.00
 2017 036   129       0    6232   26261     424   25837   25489   347.4    0.00     0.0     0.0    0.00     0.0     0.0    0.00
 2017 037   130       0    6232   26272     431   25841   25489   351.9    0.00     0.0     0.0    0.00     0.0     0.0    0.00
 2017 038   131       0    6232   26281     437   25844   25488   356.1    0.00     0.0     0.0    0.00     0.0     0.0    0.00
 2017 039   132       0    6232   26290     442   25848   25487   360.7    0.00     0.0     0.0    0.00     0.0     0.0    0.00
 2017 040   133       0    6232   26300     448   25852   25487   365.5    0.00     0.0     0.0    0.00     0.0     0.0    0.00
 2017 041   134       0    6232   26313     457   25856   25486   370.0    0.00     0.0     0.0    0.00     0.0     0.0    0.00
 2017 042   135       0    6231   26323     464   25859   25485   373.6    0.00     0.0     0.0    0.00     0.0     0.0    0.00
 2017 043   136       0    6231   26331     469   25862   25484   377.4    0.00     0.0     0.0    0.00     0.0     0.0    0.00
 2017 044   137       0    6231   26341     476   25865   25484   381.4    0.00     0.0     0.0    0.00     0.0     0.0    0.00
 2017 045   138       0    6231   26350     482   25869   25483   385.8    0.00     0.0     0.0    0.00     0.0     0.0    0.00
 2017 046   139       0    6231   26360     487   25873   25482   390.3    0.00     0.0     0.0    0.00     0.0     0.0    0.00
 2017 047   140       0    6230   26370     493   25877   25482   395.1    0.00     0.0     0.0    0.00     0.0     0.0    0.00
 2017 048   141       0    6230   26377     498   25879   25481   398.2    0.00     0.0     0.0    0.00     0.0     0.0    0.00
 2017 049   142       0    6230   26384     503   25881   25480   401.0    0.00     0.0     0.0    0.00     0.0     0.0    0.00
 2017 050   143       0    6230   26391     507   25884   25480   404.8    0.00     0.0     0.0    0.00     0.0     0.0    0.00
 2017 051   144       0    6230   26400     512   25888   25479   409.2    0.00     0.0     0.0    0.00     0.0     0.0    0.00
 2017 052   145       0    6230   26408     517   25892   25478   413.3    0.00     0.0     0.0    0.00     0.0     0.0    0.00
 2017 053   146       0    6230   26417     522   25895   25478   417.6    0.00     0.0     0.0    0.00     0.0     0.0    0.00
 2017 054   147       0    6229   26426     527   25899   25477   421.8    0.00     0.0     0.0    0.00     0.0     0.0    0.00
 2017 055   148       0    6229   26433     531   25902   25476   425.7    0.00     0.0     0.0    0.00     0.0     0.0    0.00
 2017 056   149       0    6229   26441     535   25905   25475   430.1    0.00     0.0     0.0    0.00     0.0     0.0    0.00
 2017 057   150       0    6229   26454     545   25909   25475   434.3    0.00     0.0     0.0    0.00     0.0     0.0    0.00
 2017 058   151       0    6229   26461     549   25912   25474   438.2    0.00     0.0     0.0    0.00     0.0     0.0    0.00
 2017 059   152       0    6228   26471     555   25915   25473   442.0    0.00     0.0     0.0    0.00     0.0     0.0    0.00
 2017 060   153       0    6228   26479     561   25918   25472   446.0    0.00     0.0     0.0    0.00     0.0     0.0    0.00
 2017 061   154       0    6228   26490     568   25922   25472   449.9    0.00     0.0     0.0    0.00     0.0     0.0    0.00
 2017 062   155       0    6228   26501     576   25925   25471   454.0    0.00     0.0     0.0    0.00     0.0     0.0    0.00
 2017 063   156       0    6228   26512     584   25928   25470   457.8    0.00     0.0     0.0    0.00     0.0     0.0    0.00
 2017 064   157       0    6227   26522     592   25930   25469   461.1    0.00     0.0     0.0    0.00     0.0     0.0    0.00
 2017 065   158       0    6227   26533     599   25934   25469   465.1    0.00     0.0     0.0    0.00     0.0     0.0    0.00
 2017 066   159       0    6227   26542     605   25937   25468   468.9    0.00     0.0     0.0    0.00     0.0     0.0    0.00
 2017 067   160       0    6227   26550     611   25940   25467   472.4    0.00     0.0     0.0    0.00     0.0     0.0    0.00
 2017 068   161       0    6227   26559     617   25943   25466   476.1    0.00     0.0     0.0    0.00     0.0     0.0    0.00
 2017 069   162       0    6227   26569     623   25946   25466   479.8    0.00     0.0     0.0    0.00     0.0     0.0    0.00
 2017 070   163       0    6226   26578     630   25949   25465   483.6    0.00     0.0     0.0    0.00     0.0     0.0    0.00
 2017 071   164       0    6226   26587     636   25952   25464   487.3    0.00     0.0     0.0    0.00     0.0     0.0    0.00
 2017 072   165       0    6226   26595     640   25955   25464   491.2    0.00     0.0     0.0    0.00     0.0     0.0    0.00
 2017 073   166       0    6226   26602     644   25958   25463   495.1    0.00     0.0     0.0    0.00     0.0     0.0    0.00
 2017 074   167       0    6226   26611     650   25961   25462   498.5    0.00     0.0     0.0    0.00     0.0     0.0    0.00
 2017 075   168       0    6225   26613     651   25962   25461   500.2    0.00     0.0     0.0    0.00     0.0     0.0    0.00
 2017 076   169       0    6225   26618     655   25963   25461   502.1    0.00     0.0     0.0    0.00     0.0     0.0    0.00
 2017 077   170       0    6225   26622     657   25965   25460   504.8    0.00     0.0     0.0    0.00     0.0     0.0    0.00

*DSSAT Cropping System Model Ver. 4.8.5.017 pre-release  JUN 28, 2025 01:30:15

*RUN   4        : Radiance                  CRGRO048 UFBA1701    1
 MODEL          : CRGRO048 - Strawberry
 EXPERIMENT     : UFBA1701 SR 2017 BALM STRAWBERRY VARIETY TRIAL
 DATA PATH      : /data/Strawberry/
 TREATMENT  1   : Radiance                  CRGRO048
  
@YEAR DOY   DAS    OMAC    SCDD    SOCD    SC0D    SCTD   SOMCT    LCTD    ONAC    SNDD    SOND    SN0D    SNTD   SOMNT    LNTD
 2017 273     0       0    6258   25593       0   25593   25593     0.0    0.00     0.0     0.0    0.00     0.0     0.0    0.00
 2017 274     1       0    6258   25592       0   25592   25592     0.0    0.00     0.0     0.0    0.00     0.0     0.0    0.00
 2017 275     2       0    6257   25591       0   25591   25591     0.0    0.00     0.0     0.0    0.00     0.0     0.0    0.00
 2017 276     3       0    6257   25590       0   25590   25590     0.0    0.00     0.0     0.0    0.00     0.0     0.0    0.00
 2017 277     4       0    6257   25589       0   25589   25589     0.0    0.00     0.0     0.0    0.00     0.0     0.0    0.00
 2017 278     5       0    6257   25588       0   25588   25588     0.0    0.00     0.0     0.0    0.00     0.0     0.0    0.00
 2017 279     6       0    6256   25587       0   25587   25587     0.0    0.00     0.0     0.0    0.00     0.0     0.0    0.00
 2017 280     7       0    6256   25586       0   25586   25586     0.0    0.00     0.0     0.0    0.00     0.0     0.0    0.00
 2017 281     8       0    6256   25585       0   25585   25585     0.0    0.00     0.0     0.0    0.00     0.0     0.0    0.00
 2017 282     9       0    6256   25584       0   25584   25584     0.0    0.00     0.0     0.0    0.00     0.0     0.0    0.00
 2017 283    10       0    6255   25583       0   25583   25583     0.3    0.00     0.0     0.0    0.00     0.0     0.0    0.00
 2017 284    11       0    6255   25582       0   25582   25582     0.6    0.00     0.0     0.0    0.00     0.0     0.0    0.00
 2017 285    12       0    6255   25582       0   25581   25581     0.8    0.00     0.0     0.0    0.00     0.0     0.0    0.00
 2017 286    13       0    6254   25581       1   25581   25579     1.1    0.00     0.0     0.0    0.00     0.0     0.0    0.00
 2017 287    14       0    6254   25581       1   25580   25578     1.4    0.00     0.0     0.0    0.00     0.0     0.0    0.00
 2017 288    15       0    6254   25580       1   25579   25577     1.7    0.00     0.0     0.0    0.00     0.0     0.0    0.00
 2017 289    16       0    6254   25580       1   25578   25576     2.0    0.00     0.0     0.0    0.00     0.0     0.0    0.00
 2017 290    17       0    6253   25579       1   25578   25575     2.4    0.00     0.0     0.0    0.00     0.0     0.0    0.00
 2017 291    18       0    6253   25579       2   25577   25574     2.8    0.00     0.0     0.0    0.00     0.0     0.0    0.00
 2017 292    19       0    6253   25579       2   25577   25573     3.2    0.00     0.0     0.0    0.00     0.0     0.0    0.00
 2017 293    20       0    6253   25578       2   25576   25572     3.6    0.00     0.0     0.0    0.00     0.0     0.0    0.00
 2017 294    21       0    6252   25578       2   25576   25571     4.1    0.00     0.0     0.0    0.00     0.0     0.0    0.00
 2017 295    22       0    6252   25578       3   25575   25571     4.5    0.00     0.0     0.0    0.00     0.0     0.0    0.00
 2017 296    23       0    6252   25577       3   25575   25570     5.0    0.00     0.0     0.0    0.00     0.0     0.0    0.00
 2017 297    24       0    6252   25577       3   25574   25569     5.4    0.00     0.0     0.0    0.00     0.0     0.0    0.00
 2017 298    25       0    6251   25577       4   25574   25568     5.9    0.00     0.0     0.0    0.00     0.0     0.0    0.00
 2017 299    26       0    6251   25577       4   25573   25567     6.4    0.00     0.0     0.0    0.00     0.0     0.0    0.00
 2017 300    27       0    6251   25577       4   25573   25566     6.8    0.00     0.0     0.0    0.00     0.0     0.0    0.00
 2017 301    28       0    6251   25577       5   25572   25565     7.3    0.00     0.0     0.0    0.00     0.0     0.0    0.00
 2017 302    29       0    6250   25577       5   25572   25564     8.0    0.00     0.0     0.0    0.00     0.0     0.0    0.00
 2017 303    30       0    6250   25578       6   25572   25564     8.4    0.00     0.0     0.0    0.00     0.0     0.0    0.00
 2017 304    31       0    6250   25578       6   25572   25563     8.9    0.00     0.0     0.0    0.00     0.0     0.0    0.00
 2017 305    32       0    6250   25578       6   25572   25562     9.5    0.00     0.0     0.0    0.00     0.0     0.0    0.00
 2017 306    33       0    6250   25579       7   25572   25562    10.2    0.00     0.0     0.0    0.00     0.0     0.0    0.00
 2017 307    34       0    6250   25579       8   25572   25561    11.0    0.00     0.0     0.0    0.00     0.0     0.0    0.00
 2017 308    35       0    6249   25580       8   25572   25560    11.9    0.00     0.0     0.0    0.00     0.0     0.0    0.00
 2017 309    36       0    6249   25581       9   25572   25559    12.8    0.00     0.0     0.0    0.00     0.0     0.0    0.00
 2017 310    37       0    6249   25582      10   25572   25559    13.8    0.00     0.0     0.0    0.00     0.0     0.0    0.00
 2017 311    38       0    6249   25583      11   25573   25558    14.9    0.00     0.0     0.0    0.00     0.0     0.0    0.00
 2017 312    39       0    6249   25584      12   25573   25557    16.0    0.00     0.0     0.0    0.00     0.0     0.0    0.00
 2017 313    40       0    6248   25586      13   25573   25556    17.1    0.00     0.0     0.0    0.00     0.0     0.0    0.00
 2017 314    41       0    6248   25587      14   25573   25555    18.4    0.00     0.0     0.0    0.00     0.0     0.0    0.00
 2017 315    42       0    6248   25589      15   25574   25554    19.8    0.00     0.0     0.0    0.00     0.0     0.0    0.00
 2017 316    43       0    6248   25590      16   25574   25553    21.1    0.00     0.0     0.0    0.00     0.0     0.0    0.00
 2017 317    44       0    6248   25592      17   25575   25552    22.7    0.00     0.0     0.0    0.00     0.0     0.0    0.00
 2017 318    45       0    6247   25594      18   25576   25552    24.2    0.00     0.0     0.0    0.00     0.0     0.0    0.00
 2017 319    46       0    6247   25596      20   25576   25551    25.7    0.00     0.0     0.0    0.00     0.0     0.0    0.00
 2017 320    47       0    6247   25598      21   25577   25550    27.3    0.00     0.0     0.0    0.00     0.0     0.0    0.00
 2017 321    48       0    6247   25600      23   25578   25549    29.0    0.00     0.0     0.0    0.00     0.0     0.0    0.00
 2017 322    49       0    6246   25603      24   25579   25548    30.6    0.00     0.0     0.0    0.00     0.0     0.0    0.00
 2017 323    50       0    6246   25605      26   25580   25547    32.3    0.00     0.0     0.0    0.00     0.0     0.0    0.00
 2017 324    51       0    6246   25608      27   25581   25547    34.1    0.00     0.0     0.0    0.00     0.0     0.0    0.00
 2017 325    52       0    6246   25610      29   25582   25546    35.7    0.00     0.0     0.0    0.00     0.0     0.0    0.00
 2017 326    53       0    6246   25614      31   25583   25545    37.9    0.00     0.0     0.0    0.00     0.0     0.0    0.00
 2017 327    54       0    6246   25618      33   25584   25544    40.2    0.00     0.0     0.0    0.00     0.0     0.0    0.00
 2017 328    55       0    6245   25622      35   25586   25544    42.7    0.00     0.0     0.0    0.00     0.0     0.0    0.00
 2017 329    56       0    6245   25626      38   25588   25543    45.1    0.00     0.0     0.0    0.00     0.0     0.0    0.00
 2017 330    57       0    6245   25628      39   25589   25542    47.0    0.00     0.0     0.0    0.00     0.0     0.0    0.00
 2017 331    58       0    6245   25632      41   25590   25541    49.3    0.00     0.0     0.0    0.00     0.0     0.0    0.00
 2017 332    59       0    6245   25635      43   25592   25540    51.4    0.00     0.0     0.0    0.00     0.0     0.0    0.00
 2017 333    60       0    6244   25640      46   25594   25540    54.0    0.00     0.0     0.0    0.00     0.0     0.0    0.00
 2017 334    61       0    6244   25644      49   25596   25539    56.9    0.00     0.0     0.0    0.00     0.0     0.0    0.00
 2017 335    62       0    6244   25649      52   25598   25538    59.7    0.00     0.0     0.0    0.00     0.0     0.0    0.00
 2017 336    63       0    6244   25654      54   25600   25537    62.5    0.00     0.0     0.0    0.00     0.0     0.0    0.00
 2017 337    64       0    6244   25659      57   25602   25536    65.3    0.00     0.0     0.0    0.00     0.0     0.0    0.00
 2017 338    65       0    6243   25664      60   25604   25536    68.3    0.00     0.0     0.0    0.00     0.0     0.0    0.00
 2017 339    66       0    6243   25670      63   25606   25535    71.6    0.00     0.0     0.0    0.00     0.0     0.0    0.00
 2017 340    67       0    6243   25675      66   25609   25534    74.9    0.00     0.0     0.0    0.00     0.0     0.0    0.00
 2017 341    68       0    6243   25681      70   25611   25533    78.2    0.00     0.0     0.0    0.00     0.0     0.0    0.00
 2017 342    69       0    6243   25688      74   25614   25532    81.9    0.00     0.0     0.0    0.00     0.0     0.0    0.00
 2017 343    70       0    6242   25694      77   25617   25531    85.6    0.00     0.0     0.0    0.00     0.0     0.0    0.00
 2017 344    71       0    6242   25698      79   25619   25531    88.0    0.00     0.0     0.0    0.00     0.0     0.0    0.00
 2017 345    72       0    6242   25700      80   25619   25530    89.3    0.00     0.0     0.0    0.00     0.0     0.0    0.00
 2017 346    73       0    6242   25702      82   25620   25529    90.9    0.00     0.0     0.0    0.00     0.0     0.0    0.00
 2017 347    74       0    6242   25706      84   25622   25529    93.2    0.00     0.0     0.0    0.00     0.0     0.0    0.00
 2017 348    75       0    6242   25709      86   25623   25528    95.1    0.00     0.0     0.0    0.00     0.0     0.0    0.00
 2017 349    76       0    6242   25713      88   25625   25528    97.7    0.00     0.0     0.0    0.00     0.0     0.0    0.00
 2017 350    77       0    6241   25721      92   25629   25527   101.5    0.00     0.0     0.0    0.00     0.0     0.0    0.00
 2017 351    78       0    6241   25728      96   25632   25526   105.3    0.00     0.0     0.0    0.00     0.0     0.0    0.00
 2017 352    79       0    6241   25736     101   25635   25526   109.3    0.00     0.0     0.0    0.00     0.0     0.0    0.00
 2017 353    80       0    6241   25744     105   25639   25525   113.7    0.00     0.0     0.0    0.00     0.0     0.0    0.00
 2017 354    81       0    6241   25753     110   25643   25524   118.3    0.00     0.0     0.0    0.00     0.0     0.0    0.00
 2017 355    82       0    6241   25761     115   25646   25524   122.9    0.00     0.0     0.0    0.00     0.0     0.0    0.00
 2017 356    83       0    6240   25770     120   25651   25523   127.9    0.00     0.0     0.0    0.00     0.0     0.0    0.00
 2017 357    84       0    6240   25780     125   25655   25522   132.6    0.00     0.0     0.0    0.00     0.0     0.0    0.00
 2017 358    85       0    6240   25789     130   25658   25521   137.3    0.00     0.0     0.0    0.00     0.0     0.0    0.00
 2017 359    86       0    6240   25798     135   25662   25520   142.0    0.00     0.0     0.0    0.00     0.0     0.0    0.00
 2017 360    87       0    6240   25806     140   25666   25520   146.5    0.00     0.0     0.0    0.00     0.0     0.0    0.00
 2017 361    88       0    6239   25814     144   25670   25519   150.8    0.00     0.0     0.0    0.00     0.0     0.0    0.00
 2017 362    89       0    6239   25823     149   25674   25518   155.6    0.00     0.0     0.0    0.00     0.0     0.0    0.00
 2017 363    90       0    6239   25833     155   25678   25517   160.7    0.00     0.0     0.0    0.00     0.0     0.0    0.00
 2017 364    91       0    6239   25841     160   25681   25517   164.8    0.00     0.0     0.0    0.00     0.0     0.0    0.00
 2017 365    92       0    6239   25847     163   25684   25516   168.3    0.00     0.0     0.0    0.00     0.0     0.0    0.00
 2018 001    93       0    6239   25854     167   25687   25515   171.8    0.00     0.0     0.0    0.00     0.0     0.0    0.00

*DSSAT Cropping System Model Ver. 4.8.5.017 pre-release  JUN 28, 2025 01:30:23

*RUN   5        : Brilliance                CRGRO048 UFBA1701    2
 MODEL          : CRGRO048 - Strawberry
 EXPERIMENT     : UFBA1701 SR 2017 BALM STRAWBERRY VARIETY TRIAL
 DATA PATH      : /data/Strawberry/
 TREATMENT  2   : Brilliance                CRGRO048
  
@YEAR DOY   DAS    OMAC    SCDD    SOCD    SC0D    SCTD   SOMCT    LCTD    ONAC    SNDD    SOND    SN0D    SNTD   SOMNT    LNTD
 2017 273     0       0    6258   25593       0   25593   25593     0.0    0.00     0.0     0.0    0.00     0.0     0.0    0.00
 2017 274     1       0    6258   25592       0   25592   25592     0.0    0.00     0.0     0.0    0.00     0.0     0.0    0.00
 2017 275     2       0    6257   25591       0   25591   25591     0.0    0.00     0.0     0.0    0.00     0.0     0.0    0.00
 2017 276     3       0    6257   25590       0   25590   25590     0.0    0.00     0.0     0.0    0.00     0.0     0.0    0.00
 2017 277     4       0    6257   25589       0   25589   25589     0.0    0.00     0.0     0.0    0.00     0.0     0.0    0.00
 2017 278     5       0    6257   25588       0   25588   25588     0.0    0.00     0.0     0.0    0.00     0.0     0.0    0.00
 2017 279     6       0    6256   25587       0   25587   25587     0.0    0.00     0.0     0.0    0.00     0.0     0.0    0.00
 2017 280     7       0    6256   25586       0   25586   25586     0.0    0.00     0.0     0.0    0.00     0.0     0.0    0.00
 2017 281     8       0    6256   25585       0   25585   25585     0.0    0.00     0.0     0.0    0.00     0.0     0.0    0.00
 2017 282     9       0    6256   25584       0   25584   25584     0.0    0.00     0.0     0.0    0.00     0.0     0.0    0.00
 2017 283    10       0    6255   25583       0   25583   25583     0.3    0.00     0.0     0.0    0.00     0.0     0.0    0.00
 2017 284    11       0    6255   25582       0   25582   25582     0.6    0.00     0.0     0.0    0.00     0.0     0.0    0.00
 2017 285    12       0    6255   25582       0   25581   25581     0.8    0.00     0.0     0.0    0.00     0.0     0.0    0.00
 2017 286    13       0    6254   25581       1   25581   25579     1.1    0.00     0.0     0.0    0.00     0.0     0.0    0.00
 2017 287    14       0    6254   25581       1   25580   25578     1.4    0.00     0.0     0.0    0.00     0.0     0.0    0.00
 2017 288    15       0    6254   25580       1   25579   25577     1.7    0.00     0.0     0.0    0.00     0.0     0.0    0.00
 2017 289    16       0    6254   25580       1   25578   25576     2.0    0.00     0.0     0.0    0.00     0.0     0.0    0.00
 2017 290    17       0    6253   25579       1   25578   25575     2.4    0.00     0.0     0.0    0.00     0.0     0.0    0.00
 2017 291    18       0    6253   25579       2   25577   25574     2.8    0.00     0.0     0.0    0.00     0.0     0.0    0.00
 2017 292    19       0    6253   25579       2   25577   25573     3.2    0.00     0.0     0.0    0.00     0.0     0.0    0.00
 2017 293    20       0    6253   25578       2   25576   25572     3.7    0.00     0.0     0.0    0.00     0.0     0.0    0.00
 2017 294    21       0    6252   25578       2   25576   25571     4.1    0.00     0.0     0.0    0.00     0.0     0.0    0.00
 2017 295    22       0    6252   25578       3   25575   25571     4.6    0.00     0.0     0.0    0.00     0.0     0.0    0.00
 2017 296    23       0    6252   25578       3   25575   25570     5.1    0.00     0.0     0.0    0.00     0.0     0.0    0.00
 2017 297    24       0    6252   25577       3   25574   25569     5.5    0.00     0.0     0.0    0.00     0.0     0.0    0.00
 2017 298    25       0    6251   25577       4   25574   25568     6.1    0.00     0.0     0.0    0.00     0.0     0.0    0.00
 2017 299    26       0    6251   25577       4   25573   25567     6.5    0.00     0.0     0.0    0.00     0.0     0.0    0.00
 2017 300    27       0    6251   25577       4   25573   25566     7.0    0.00     0.0     0.0    0.00     0.0     0.0    0.00
 2017 301    28       0    6251   25577       5   25573   25565     7.5    0.00     0.0     0.0    0.00     0.0     0.0    0.00
 2017 302    29       0    6250   25578       5   25572   25564     8.2    0.00     0.0     0.0    0.00     0.0     0.0    0.00
 2017 303    30       0    6250   25578       6   25572   25564     8.7    0.00     0.0     0.0    0.00     0.0     0.0    0.00
 2017 304    31       0    6250   25578       6   25572   25563     9.1    0.00     0.0     0.0    0.00     0.0     0.0    0.00
 2017 305    32       0    6250   25578       6   25572   25562     9.7    0.00     0.0     0.0    0.00     0.0     0.0    0.00
 2017 306    33       0    6250   25579       7   25572   25562    10.5    0.00     0.0     0.0    0.00     0.0     0.0    0.00
 2017 307    34       0    6250   25580       8   25572   25561    11.3    0.00     0.0     0.0    0.00     0.0     0.0    0.00
 2017 308    35       0    6249   25581       9   25572   25560    12.3    0.00     0.0     0.0    0.00     0.0     0.0    0.00
 2017 309    36       0    6249   25582       9   25573   25559    13.2    0.00     0.0     0.0    0.00     0.0     0.0    0.00
 2017 310    37       0    6249   25583      10   25573   25559    14.3    0.00     0.0     0.0    0.00     0.0     0.0    0.00
 2017 311    38       0    6249   25584      11   25573   25558    15.5    0.00     0.0     0.0    0.00     0.0     0.0    0.00
 2017 312    39       0    6249   25586      12   25573   25557    16.7    0.00     0.0     0.0    0.00     0.0     0.0    0.00
 2017 313    40       0    6248   25587      13   25574   25556    17.9    0.00     0.0     0.0    0.00     0.0     0.0    0.00
 2017 314    41       0    6248   25588      14   25574   25555    19.2    0.00     0.0     0.0    0.00     0.0     0.0    0.00
 2017 315    42       0    6248   25590      15   25575   25554    20.7    0.00     0.0     0.0    0.00     0.0     0.0    0.00
 2017 316    43       0    6248   25592      17   25575   25553    22.2    0.00     0.0     0.0    0.00     0.0     0.0    0.00
 2017 317    44       0    6248   25594      18   25576   25552    23.9    0.00     0.0     0.0    0.00     0.0     0.0    0.00
 2017 318    45       0    6247   25596      19   25577   25552    25.5    0.00     0.0     0.0    0.00     0.0     0.0    0.00
 2017 319    46       0    6247   25599      21   25578   25551    27.2    0.00     0.0     0.0    0.00     0.0     0.0    0.00
 2017 320    47       0    6247   25601      22   25579   25550    28.9    0.00     0.0     0.0    0.00     0.0     0.0    0.00
 2017 321    48       0    6247   25604      24   25580   25549    30.7    0.00     0.0     0.0    0.00     0.0     0.0    0.00
 2017 322    49       0    6246   25607      26   25581   25548    32.5    0.00     0.0     0.0    0.00     0.0     0.0    0.00
 2017 323    50       0    6246   25609      28   25582   25547    34.3    0.00     0.0     0.0    0.00     0.0     0.0    0.00
 2017 324    51       0    6246   25613      30   25583   25547    36.4    0.00     0.0     0.0    0.00     0.0     0.0    0.00
 2017 325    52       0    6246   25615      31   25584   25546    38.1    0.00     0.0     0.0    0.00     0.0     0.0    0.00
 2017 326    53       0    6246   25619      34   25586   25545    40.5    0.00     0.0     0.0    0.00     0.0     0.0    0.00
 2017 327    54       0    6246   25623      36   25587   25544    42.9    0.00     0.0     0.0    0.00     0.0     0.0    0.00
 2017 328    55       0    6245   25628      39   25589   25544    45.7    0.00     0.0     0.0    0.00     0.0     0.0    0.00
 2017 329    56       0    6245   25632      41   25591   25543    48.2    0.00     0.0     0.0    0.00     0.0     0.0    0.00
 2017 330    57       0    6245   25635      43   25592   25542    50.3    0.00     0.0     0.0    0.00     0.0     0.0    0.00
 2017 331    58       0    6245   25639      45   25594   25541    52.7    0.00     0.0     0.0    0.00     0.0     0.0    0.00
 2017 332    59       0    6245   25643      48   25595   25540    55.0    0.00     0.0     0.0    0.00     0.0     0.0    0.00
 2017 333    60       0    6244   25648      50   25597   25540    57.8    0.00     0.0     0.0    0.00     0.0     0.0    0.00
 2017 334    61       0    6244   25653      53   25600   25539    60.9    0.00     0.0     0.0    0.00     0.0     0.0    0.00
 2017 335    62       0    6244   25659      57   25602   25538    63.9    0.00     0.0     0.0    0.00     0.0     0.0    0.00
 2017 336    63       0    6244   25664      60   25604   25537    66.9    0.00     0.0     0.0    0.00     0.0     0.0    0.00
 2017 337    64       0    6244   25669      63   25606   25536    69.9    0.00     0.0     0.0    0.00     0.0     0.0    0.00
 2017 338    65       0    6243   25675      66   25609   25536    73.1    0.00     0.0     0.0    0.00     0.0     0.0    0.00
 2017 339    66       0    6243   25681      70   25611   25535    76.5    0.00     0.0     0.0    0.00     0.0     0.0    0.00
 2017 340    67       0    6243   25687      73   25614   25534    80.0    0.00     0.0     0.0    0.00     0.0     0.0    0.00
 2017 341    68       0    6243   25694      77   25617   25533    83.5    0.00     0.0     0.0    0.00     0.0     0.0    0.00
 2017 342    69       0    6243   25702      82   25620   25532    87.4    0.00     0.0     0.0    0.00     0.0     0.0    0.00
 2017 343    70       0    6242   25708      86   25623   25531    91.3    0.00     0.0     0.0    0.00     0.0     0.0    0.00
 2017 344    71       0    6242   25713      88   25624   25531    93.8    0.00     0.0     0.0    0.00     0.0     0.0    0.00
 2017 345    72       0    6242   25714      89   25625   25530    95.2    0.00     0.0     0.0    0.00     0.0     0.0    0.00
 2017 346    73       0    6242   25718      92   25626   25529    96.8    0.00     0.0     0.0    0.00     0.0     0.0    0.00
 2017 347    74       0    6242   25721      93   25628   25529    99.3    0.00     0.0     0.0    0.00     0.0     0.0    0.00
 2017 348    75       0    6242   25725      96   25629   25528   101.3    0.00     0.0     0.0    0.00     0.0     0.0    0.00
[...]
 2014 297    24       0    6253   25582       4   25578   25572     6.0    0.00     0.0     0.0    0.00     0.0     0.0    0.00
 2014 298    25       0    6252   25583       4   25578   25572     6.6    0.00     0.0     0.0    0.00     0.0     0.0    0.00
 2014 299    26       0    6252   25583       5   25578   25571     7.2    0.00     0.0     0.0    0.00     0.0     0.0    0.00
 2014 300    27       0    6252   25583       5   25578   25570     7.8    0.00     0.0     0.0    0.00     0.0     0.0    0.00
 2014 301    28       0    6252   25583       6   25578   25569     8.4    0.00     0.0     0.0    0.00     0.0     0.0    0.00
 2014 302    29       0    6252   25584       6   25578   25569     9.1    0.00     0.0     0.0    0.00     0.0     0.0    0.00
 2014 303    30       0    6252   25584       7   25578   25568     9.9    0.00     0.0     0.0    0.00     0.0     0.0    0.00
 2014 304    31       0    6251   25585       7   25578   25567    10.7    0.00     0.0     0.0    0.00     0.0     0.0    0.00
 2014 305    32       0    6251   25586       8   25578   25566    11.6    0.00     0.0     0.0    0.00     0.0     0.0    0.00
 2014 306    33       0    6251   25586       9   25578   25566    12.2    0.00     0.0     0.0    0.00     0.0     0.0    0.00
 2014 307    34       0    6251   25587       9   25578   25565    12.8    0.00     0.0     0.0    0.00     0.0     0.0    0.00
 2014 308    35       0    6251   25587      10   25578   25564    13.6    0.00     0.0     0.0    0.00     0.0     0.0    0.00
 2014 309    36       0    6250   25589      11   25578   25564    14.7    0.00     0.0     0.0    0.00     0.0     0.0    0.00
 2014 310    37       0    6250   25590      12   25579   25563    15.9    0.00     0.0     0.0    0.00     0.0     0.0    0.00
 2014 311    38       0    6250   25592      13   25579   25562    17.2    0.00     0.0     0.0    0.00     0.0     0.0    0.00
 2014 312    39       0    6250   25594      14   25580   25561    18.5    0.00     0.0     0.0    0.00     0.0     0.0    0.00
 2014 313    40       0    6250   25595      15   25581   25561    19.8    0.00     0.0     0.0    0.00     0.0     0.0    0.00
 2014 314    41       0    6250   25597      16   25581   25560    21.1    0.00     0.0     0.0    0.00     0.0     0.0    0.00
 2014 315    42       0    6249   25599      18   25582   25559    22.5    0.00     0.0     0.0    0.00     0.0     0.0    0.00
 2014 316    43       0    6249   25602      19   25583   25559    24.0    0.00     0.0     0.0    0.00     0.0     0.0    0.00
 2014 317    44       0    6249   25604      20   25583   25558    25.6    0.00     0.0     0.0    0.00     0.0     0.0    0.00
 2014 318    45       0    6249   25606      22   25584   25557    27.1    0.00     0.0     0.0    0.00     0.0     0.0    0.00
 2014 319    46       0    6249   25608      23   25585   25557    28.7    0.00     0.0     0.0    0.00     0.0     0.0    0.00
 2014 320    47       0    6249   25611      25   25586   25556    30.3    0.00     0.0     0.0    0.00     0.0     0.0    0.00
 2014 321    48       0    6248   25614      27   25587   25555    32.3    0.00     0.0     0.0    0.00     0.0     0.0    0.00
 2014 322    49       0    6248   25618      29   25589   25554    34.6    0.00     0.0     0.0    0.00     0.0     0.0    0.00
 2014 323    50       0    6248   25620      30   25590   25554    36.0    0.00     0.0     0.0    0.00     0.0     0.0    0.00
 2014 324    51       0    6248   25621      31   25590   25553    37.0    0.00     0.0     0.0    0.00     0.0     0.0    0.00
 2014 325    52       0    6248   25623      32   25591   25553    38.4    0.00     0.0     0.0    0.00     0.0     0.0    0.00
 2014 326    53       0    6248   25627      34   25592   25552    40.5    0.00     0.0     0.0    0.00     0.0     0.0    0.00
 2014 327    54       0    6248   25631      37   25595   25551    43.2    0.00     0.0     0.0    0.00     0.0     0.0    0.00
 2014 328    55       0    6247   25636      39   25597   25551    45.9    0.00     0.0     0.0    0.00     0.0     0.0    0.00
 2014 329    56       0    6247   25641      42   25599   25550    48.8    0.00     0.0     0.0    0.00     0.0     0.0    0.00
 2014 330    57       0    6247   25645      45   25601   25549    51.7    0.00     0.0     0.0    0.00     0.0     0.0    0.00
 2014 331    58       0    6247   25648      46   25602   25548    53.7    0.00     0.0     0.0    0.00     0.0     0.0    0.00
 2014 332    59       0    6247   25651      48   25603   25548    55.4    0.00     0.0     0.0    0.00     0.0     0.0    0.00
 2014 333    60       0    6247   25653      49   25604   25547    56.8    0.00     0.0     0.0    0.00     0.0     0.0    0.00
 2014 334    61       0    6246   25656      51   25605   25546    58.9    0.00     0.0     0.0    0.00     0.0     0.0    0.00
 2014 335    62       0    6246   25661      53   25607   25546    61.6    0.00     0.0     0.0    0.00     0.0     0.0    0.00
 2014 336    63       0    6246   25666      56   25610   25545    64.6    0.00     0.0     0.0    0.00     0.0     0.0    0.00
 2014 337    64       0    6246   25672      60   25612   25544    68.0    0.00     0.0     0.0    0.00     0.0     0.0    0.00
 2014 338    65       0    6246   25678      63   25615   25544    71.4    0.00     0.0     0.0    0.00     0.0     0.0    0.00
 2014 339    66       0    6246   25685      67   25618   25543    74.8    0.00     0.0     0.0    0.00     0.0     0.0    0.00
 2014 340    67       0    6245   25691      70   25621   25542    78.5    0.00     0.0     0.0    0.00     0.0     0.0    0.00
 2014 341    68       0    6245   25698      74   25624   25541    82.2    0.00     0.0     0.0    0.00     0.0     0.0    0.00
 2014 342    69       0    6245   25704      78   25626   25541    85.6    0.00     0.0     0.0    0.00     0.0     0.0    0.00
 2014 343    70       0    6245   25709      81   25629   25540    88.6    0.00     0.0     0.0    0.00     0.0     0.0    0.00
 2014 344    71       0    6245   25713      83   25630   25539    91.1    0.00     0.0     0.0    0.00     0.0     0.0    0.00
 2014 345    72       0    6245   25716      85   25632   25539    93.1    0.00     0.0     0.0    0.00     0.0     0.0    0.00
 2014 346    73       0    6244   25720      87   25633   25538    95.1    0.00     0.0     0.0    0.00     0.0     0.0    0.00
 2014 347    74       0    6244   25722      88   25635   25537    97.1    0.00     0.0     0.0    0.00     0.0     0.0    0.00
 2014 348    75       0    6244   25727      90   25637   25537    99.5    0.00     0.0     0.0    0.00     0.0     0.0    0.00
 2014 349    76       0    6244   25731      93   25638   25536   102.0    0.00     0.0     0.0    0.00     0.0     0.0    0.00
 2014 350    77       0    6244   25735      95   25641   25536   104.6    0.00     0.0     0.0    0.00     0.0     0.0    0.00
 2014 351    78       0    6244   25741      98   25643   25535   107.7    0.00     0.0     0.0    0.00     0.0     0.0    0.00
 2014 352    79       0    6244   25748     102   25646   25535   111.4    0.00     0.0     0.0    0.00     0.0     0.0    0.00
 2014 353    80       0    6244   25753     104   25649   25534   114.4    0.00     0.0     0.0    0.00     0.0     0.0    0.00
 2014 354    81       0    6244   25760     108   25652   25534   118.2    0.00     0.0     0.0    0.00     0.0     0.0    0.00
 2014 355    82       0    6243   25769     113   25656   25533   122.7    0.00     0.0     0.0    0.00     0.0     0.0    0.00
 2014 356    83       0    6243   25779     118   25660   25533   127.8    0.00     0.0     0.0    0.00     0.0     0.0    0.00
 2014 357    84       0    6243   25789     124   25665   25532   133.5    0.00     0.0     0.0    0.00     0.0     0.0    0.00
 2014 358    85       0    6243   25800     130   25670   25531   139.2    0.00     0.0     0.0    0.00     0.0     0.0    0.00
 2014 359    86       0    6243   25811     136   25675   25530   144.8    0.00     0.0     0.0    0.00     0.0     0.0    0.00
 2014 360    87       0    6243   25819     141   25678   25530   148.9    0.00     0.0     0.0    0.00     0.0     0.0    0.00
 2014 361    88       0    6242   25827     145   25682   25529   153.1    0.00     0.0     0.0    0.00     0.0     0.0    0.00
 2014 362    89       0    6242   25838     151   25687   25528   158.7    0.00     0.0     0.0    0.00     0.0     0.0    0.00
 2014 363    90       0    6242   25848     157   25691   25527   164.0    0.00     0.0     0.0    0.00     0.0     0.0    0.00
 2014 364    91       0    6242   25859     163   25696   25527   169.2    0.00     0.0     0.0    0.00     0.0     0.0    0.00
 2014 365    92       0    6242   25869     169   25701   25526   174.6    0.00     0.0     0.0    0.00     0.0     0.0    0.00
 2015 001    93       0    6242   25878     174   25704   25525   179.2    0.00     0.0     0.0    0.00     0.0     0.0    0.00
 2015 002    94       0    6241   25888     179   25709   25525   184.2    0.00     0.0     0.0    0.00     0.0     0.0    0.00
 2015 003    95       0    6241   25899     185   25713   25524   189.7    0.00     0.0     0.0    0.00     0.0     0.0    0.00
 2015 004    96       0    6241   25910     191   25718   25523   195.3    0.00     0.0     0.0    0.00     0.0     0.0    0.00
 2015 005    97       0    6241   25921     198   25723   25522   200.7    0.00     0.0     0.0    0.00     0.0     0.0    0.00
 2015 006    98       0    6241   25931     204   25727   25522   205.6    0.00     0.0     0.0    0.00     0.0     0.0    0.00
 2015 007    99       0    6240   25940     209   25731   25521   210.3    0.00     0.0     0.0    0.00     0.0     0.0    0.00
 2015 008   100       0    6240   25946     212   25734   25520   213.9    0.00     0.0     0.0    0.00     0.0     0.0    0.00
 2015 009   101       0    6240   25950     214   25736   25519   216.3    0.00     0.0     0.0    0.00     0.0     0.0    0.00
 2015 010   102       0    6240   25955     217   25738   25519   219.3    0.00     0.0     0.0    0.00     0.0     0.0    0.00
 2015 011   103       0    6240   25962     221   25741   25518   222.6    0.00     0.0     0.0    0.00     0.0     0.0    0.00
 2015 012   104       0    6240   25973     228   25745   25518   227.6    0.00     0.0     0.0    0.00     0.0     0.0    0.00
 2015 013   105       0    6240   25985     234   25751   25517   233.6    0.00     0.0     0.0    0.00     0.0     0.0    0.00
 2015 014   106       0    6239   25996     240   25756   25517   239.2    0.00     0.0     0.0    0.00     0.0     0.0    0.00
 2015 015   107       0    6239   26006     246   25760   25516   244.1    0.00     0.0     0.0    0.00     0.0     0.0    0.00
 2015 016   108       0    6239   26013     250   25763   25515   247.9    0.00     0.0     0.0    0.00     0.0     0.0    0.00
 2015 017   109       0    6239   26020     254   25766   25515   251.9    0.00     0.0     0.0    0.00     0.0     0.0    0.00
 2015 018   110       0    6239   26028     258   25770   25514   255.9    0.00     0.0     0.0    0.00     0.0     0.0    0.00
 2015 019   111       0    6239   26037     263   25774   25513   260.7    0.00     0.0     0.0    0.00     0.0     0.0    0.00
 2015 020   112       0    6239   26046     268   25778   25513   264.8    0.00     0.0     0.0    0.00     0.0     0.0    0.00
 2015 021   113       0    6238   26055     274   25781   25512   269.2    0.00     0.0     0.0    0.00     0.0     0.0    0.00
 2015 022   114       0    6238   26067     281   25786   25512   274.4    0.00     0.0     0.0    0.00     0.0     0.0    0.00
 2015 023   115       0    6238   26079     288   25791   25511   280.0    0.00     0.0     0.0    0.00     0.0     0.0    0.00
 2015 024   116       0    6238   26092     295   25797   25510   286.4    0.00     0.0     0.0    0.00     0.0     0.0    0.00
 2015 025   117       0    6238   26101     300   25800   25510   290.8    0.00     0.0     0.0    0.00     0.0     0.0    0.00
 2015 026   118       0    6238   26106     303   25803   25509   293.9    0.00     0.0     0.0    0.00     0.0     0.0    0.00
 2015 027   119       0    6238   26115     309   25807   25508   298.2    0.00     0.0     0.0    0.00     0.0     0.0    0.00
 2015 028   120       0    6238   26122     313   25809   25508   301.5    0.00     0.0     0.0    0.00     0.0     0.0    0.00
 2015 029   121       0    6237   26129     316   25812   25507   305.0    0.00     0.0     0.0    0.00     0.0     0.0    0.00
 2015 030   122       0    6237   26136     320   25816   25507   308.9    0.00     0.0     0.0    0.00     0.0     0.0    0.00
 2015 031   123       0    6237   26145     326   25819   25506   313.1    0.00     0.0     0.0    0.00     0.0     0.0    0.00
 2015 032   124       0    6237   26157     333   25823   25506   317.7    0.00     0.0     0.0    0.00     0.0     0.0    0.00
 2015 033   125       0    6237   26168     340   25828   25505   323.0    0.00     0.0     0.0    0.00     0.0     0.0    0.00
 2015 034   126       0    6237   26180     346   25833   25505   328.4    0.00     0.0     0.0    0.00     0.0     0.0    0.00
 2015 035   127       0    6237   26187     351   25836   25504   332.1    0.00     0.0     0.0    0.00     0.0     0.0    0.00
 2015 036   128       0    6237   26200     359   25841   25504   337.8    0.00     0.0     0.0    0.00     0.0     0.0    0.00
 2015 037   129       0    6236   26211     365   25846   25503   343.2    0.00     0.0     0.0    0.00     0.0     0.0    0.00
 2015 038   130       0    6236   26219     369   25850   25502   347.5    0.00     0.0     0.0    0.00     0.0     0.0    0.00
 2015 039   131       0    6236   26229     375   25854   25502   352.4    0.00     0.0     0.0    0.00     0.0     0.0    0.00
 2015 040   132       0    6236   26240     381   25859   25501   357.6    0.00     0.0     0.0    0.00     0.0     0.0    0.00
 2015 041   133       0    6236   26252     388   25864   25501   363.4    0.00     0.0     0.0    0.00     0.0     0.0    0.00
 2015 042   134       0    6236   26260     392   25868   25500   367.7    0.00     0.0     0.0    0.00     0.0     0.0    0.00
 2015 043   135       0    6236   26269     397   25872   25500   372.1    0.00     0.0     0.0    0.00     0.0     0.0    0.00
 2015 044   136       0    6236   26277     402   25875   25499   376.0    0.00     0.0     0.0    0.00     0.0     0.0    0.00
 2015 045   137       0    6236   26282     404   25877   25499   379.0    0.00     0.0     0.0    0.00     0.0     0.0    0.00
 2015 046   138       0    6235   26289     409   25880   25498   382.1    0.00     0.0     0.0    0.00     0.0     0.0    0.00
 2015 047   139       0    6235   26302     417   25885   25498   387.0    0.00     0.0     0.0    0.00     0.0     0.0    0.00
 2015 048   140       0    6235   26316     426   25890   25497   392.7    0.00     0.0     0.0    0.00     0.0     0.0    0.00
 2015 049   141       0    6235   26329     434   25896   25497   399.2    0.00     0.0     0.0    0.00     0.0     0.0    0.00
 2015 050   142       0    6235   26336     437   25899   25496   403.1    0.00     0.0     0.0    0.00     0.0     0.0    0.00
 2015 051   143       0    6235   26339     438   25901   25496   405.1    0.00     0.0     0.0    0.00     0.0     0.0    0.00
 2015 052   144       0    6235   26343     441   25902   25495   407.3    0.00     0.0     0.0    0.00     0.0     0.0    0.00
 2015 053   145       0    6235   26352     446   25907   25495   412.1    0.00     0.0     0.0    0.00     0.0     0.0    0.00
 2015 054   146       0    6235   26373     459   25913   25494   419.1    0.00     0.0     0.0    0.00     0.0     0.0    0.00
 2015 055   147       0    6235   26388     468   25920   25494   426.4    0.00     0.0     0.0    0.00     0.0     0.0    0.00
 2015 056   148       0    6234   26404     477   25927   25493   434.0    0.00     0.0     0.0    0.00     0.0     0.0    0.00
 2015 057   149       0    6234   26418     485   25934   25492   441.3    0.00     0.0     0.0    0.00     0.0     0.0    0.00
 2015 058   150       0    6234   26432     492   25939   25492   447.8    0.00     0.0     0.0    0.00     0.0     0.0    0.00
 2015 059   151       0    6234   26441     497   25944   25491   452.7    0.00     0.0     0.0    0.00     0.0     0.0    0.00
 2015 060   152       0    6234   26452     503   25949   25490   458.5    0.00     0.0     0.0    0.00     0.0     0.0    0.00
 2015 061   153       0    6234   26466     511   25955   25490   465.6    0.00     0.0     0.0    0.00     0.0     0.0    0.00
 2015 062   154       0    6233   26481     519   25962   25489   472.8    0.00     0.0     0.0    0.00     0.0     0.0    0.00
 2015 063   155       0    6233   26496     528   25968   25488   479.5    0.00     0.0     0.0    0.00     0.0     0.0    0.00
 2015 064   156       0    6233   26511     537   25974   25488   486.2    0.00     0.0     0.0    0.00     0.0     0.0    0.00
 2015 065   157       0    6233   26527     547   25980   25487   493.2    0.00     0.0     0.0    0.00     0.0     0.0    0.00
 2015 066   158       0    6233   26541     555   25986   25486   499.6    0.00     0.0     0.0    0.00     0.0     0.0    0.00
 2015 067   159       0    6232   26553     562   25991   25485   505.4    0.00     0.0     0.0    0.00     0.0     0.0    0.00
 2015 068   160       0    6232   26566     570   25997   25485   512.0    0.00     0.0     0.0    0.00     0.0     0.0    0.00
 2015 069   161       0    6232   26581     578   26003   25484   518.5    0.00     0.0     0.0    0.00     0.0     0.0    0.00
 2015 070   162       0    6232   26596     588   26009   25483   525.2    0.00     0.0     0.0    0.00     0.0     0.0    0.00
 2015 071   163       0    6232   26609     594   26015   25483   531.9    0.00     0.0     0.0    0.00     0.0     0.0    0.00
 2015 072   164       0    6232   26621     601   26021   25482   538.7    0.00     0.0     0.0    0.00     0.0     0.0    0.00
 2015 073   165       0    6231   26641     614   26026   25481   545.4    0.00     0.0     0.0    0.00     0.0     0.0    0.00
 2015 074   166       0    6231   26655     623   26032   25480   551.9    0.00     0.0     0.0    0.00     0.0     0.0    0.00
 2015 075   167       0    6231   26670     632   26038   25480   558.3    0.00     0.0     0.0    0.00     0.0     0.0    0.00
 2015 076   168       0    6231   26683     640   26043   25479   564.4    0.00     0.0     0.0    0.00     0.0     0.0    0.00
 2015 077   169       0    6230   26697     649   26049   25478   570.6    0.00     0.0     0.0    0.00     0.0     0.0    0.00
 2015 078   170       0    6230   26711     657   26054   25477   576.9    0.00     0.0     0.0    0.00     0.0     0.0    0.00
 2015 079   171       0    6230   26726     667   26060   25476   583.1    0.00     0.0     0.0    0.00     0.0     0.0    0.00
 2015 080   172       0    6230   26740     675   26065   25476   589.2    0.00     0.0     0.0    0.00     0.0     0.0    0.00
 2015 081   173       0    6230   26753     683   26070   25475   595.1    0.00     0.0     0.0    0.00     0.0     0.0    0.00
 2015 082   174       0    6229   26766     691   26075   25474   601.0    0.00     0.0     0.0    0.00     0.0     0.0    0.00
 2015 083   175       0    6229   26787     706   26081   25473   607.5    0.00     0.0     0.0    0.00     0.0     0.0    0.00
 2015 084   176       0    6229   26807     721   26086   25473   613.6    0.00     0.0     0.0    0.00     0.0     0.0    0.00
 2015 085   177       0    6229   26827     735   26091   25472   619.5    0.00     0.0     0.0    0.00     0.0     0.0    0.00
 2015 086   178       0    6229   26846     750   26096   25471   625.2    0.00     0.0     0.0    0.00     0.0     0.0    0.00
 2015 087   179       0    6229   26865     764   26102   25471   631.1    0.00     0.0     0.0    0.00     0.0     0.0    0.00
