*Soil Carbon Balance Summary

*DSSAT Cropping System Model Ver. 4.8.5.017 pre-release  JUN 28, 2025 01:29:39
!                             <----------------- Initial State Variables ----------------><------------------ Final State Variables -----------------><----------- Added ----------><---------------- Lost ---------------->
!                             <-------- SOM-C -------><-------- FOM-C -------><-----CH4--><-------- SOM-C -------><-------- FOM-C -------><-----CH4--><---OM---><Senesced><-HarvRes><----------------- GHG ----------------><--Balance->
!                                     Surf        Soil        Surf        Soil     Storage        Surf        Soil        Surf        Soil     Storage 
@Run FILEX               TN CR       SC0Di      SOMCTi       LC0Di       LCTDi     CH4STDi        SC0D       SOMCT        LC0D        LCTD      CH4STD      OMAC     SENCC      HRCH     CO2EC     CH4EC    CH4LCC    CH4COC      CUMBAL
   1 UFBA1401.SRX         1 SR        0.00    25593.00        0.00        0.00        0.00        0.00    25520.50      165.63      165.78        0.00      0.00    331.41      0.00     72.50      0.00      0.00      0.00      0.0005
   2 UFBA1601.SRX         1 SR        0.00    25593.00        0.00        0.00        0.00        0.00    25460.22      676.19      577.22        0.00      0.00   1253.41      0.00    132.78      0.00      0.00      0.00      0.0011
   3 UFBA1601.SRX         2 SR        0.00    25593.00        0.00        0.00        0.00        0.00    25460.22      657.14      504.81        0.00      0.00   1161.95      0.00    132.78      0.00      0.00      0.00      0.0019
   4 UFBA1701.SRX         1 SR        0.00    25593.00        0.00        0.00        0.00        0.00    25515.20      166.54      171.81        0.00      0.00    338.36      0.00     77.80      0.00      0.00      0.00     -0.0035
   5 UFBA1701.SRX         2 SR        0.00    25593.00        0.00        0.00        0.00        0.00    25515.20      186.63      179.26        0.00      0.00    365.90      0.00     77.80      0.00      0.00      0.00     -0.0021
   6 UFWM1401.SRX         1 SR        0.00    25593.00        0.00        0.00        0.00        0.00    25470.55      758.13      611.22        0.00      0.00   1369.35      0.00    122.45      0.00      0.00      0.00      0.0002
   7 UFWM1401.SRX         2 SR        0.00    25593.00        0.00        0.00        0.00        0.00    25470.55      763.78      631.12        0.00      0.00   1394.91      0.00    122.45      0.00      0.00      0.00     -0.0001
