*Soil Carbon Balance

*DSSAT Cropping System Model Ver. 4.8.5.017 pre-release  JUN 28, 2025 01:29:39

*RUN   1        : Radiance                  CRGRO048 UFBA1401    1
 MODEL          : CRGRO048 - Strawberry
 EXPERIMENT     : UFBA1401 SR 2014 BALM STRAWBERRY VARIETY TRIAL
 DATA PATH      : /data/Strawberry/
 TREATMENT  1   : Radiance                  CRGRO048
  

! SOIL C BALANCE                                  Initial               Final
! all units in kg[C]/ha                          Year/DOY            Year/DOY
!                                                2014-273            2014-273
! SOIL & SURFACE ORGANIC C
!   Soil Organic C                               25593.00            25520.50
!   Surface Organic C                                0.00                0.00
!   Soil Litter C                                    0.00              165.78
!   Surface Litter C                                 0.00              165.63
!   Soil methane C stored                            0.00                0.00
!                                                --------            --------
! TOTAL C in Soil and Surface Layers             25593.00            25851.92

! ADDITIONS & REMOVALS:                         Additions            Removals
!   Harvest residues from prev crop                  0.00
!   Organic matter applications                      0.00
!   Senesced plant tissue                          331.41
!   CO2-C losses                                                        72.50
!   CH4-C losses                                                         0.00

! SOIL C BALANCE
!   =      FinalC -    InitialC - Additions +  Removals
!   =    25851.92 -    25593.00 -    331.41 +     72.50 =               0.000


*DSSAT Cropping System Model Ver. 4.8.5.017 pre-release  JUN 28, 2025 01:29:44

*RUN   2        : Radiance                  CRGRO048 UFBA1601    1
 MODEL          : CRGRO048 - Strawberry
 EXPERIMENT     : UFBA1601 SR 2016 BALM STRAWBERRY VARIETY TRIAL
 DATA PATH      : /data/Strawberry/
 TREATMENT  1   : Radiance                  CRGRO048
  

! SOIL C BALANCE                                  Initial               Final
! all units in kg[C]/ha                          Year/DOY            Year/DOY
!                                                2016-273            2016-273
! SOIL & SURFACE ORGANIC C
!   Soil Organic C                               25593.00            25460.22
!   Surface Organic C                                0.00                0.00
!   Soil Litter C                                    0.00              577.22
!   Surface Litter C                                 0.00              676.19
!   Soil methane C stored                            0.00                0.00
!                                                --------            --------
! TOTAL C in Soil and Surface Layers             25593.00            26713.64

! ADDITIONS & REMOVALS:                         Additions            Removals
!   Harvest residues from prev crop                  0.00
!   Organic matter applications                      0.00
!   Senesced plant tissue                         1253.41
!   CO2-C losses                                                       132.78
!   CH4-C losses                                                         0.00

! SOIL C BALANCE
!   =      FinalC -    InitialC - Additions +  Removals
!   =    26713.64 -    25593.00 -   1253.41 +    132.78 =               0.001


*DSSAT Cropping System Model Ver. 4.8.5.017 pre-release  JUN 28, 2025 01:29:54

*RUN   3        : Brilliance                CRGRO048 UFBA1601    2
 MODEL          : CRGRO048 - Strawberry
 EXPERIMENT     : UFBA1601 SR 2016 BALM STRAWBERRY VARIETY TRIAL
 DATA PATH      : /data/Strawberry/
 TREATMENT  2   : Brilliance                CRGRO048
  

! SOIL C BALANCE                                  Initial               Final
! all units in kg[C]/ha                          Year/DOY            Year/DOY
!                                                2016-273            2016-273
! SOIL & SURFACE ORGANIC C
!   Soil Organic C                               25593.00            25460.22
!   Surface Organic C                                0.00                0.00
!   Soil Litter C                                    0.00              504.81
!   Surface Litter C                                 0.00              657.14
!   Soil methane C stored                            0.00                0.00
!                                                --------            --------
! TOTAL C in Soil and Surface Layers             25593.00            26622.17

! ADDITIONS & REMOVALS:                         Additions            Removals
!   Harvest residues from prev crop                  0.00
!   Organic matter applications                      0.00
!   Senesced plant tissue                         1161.95
!   CO2-C losses                                                       132.78
!   CH4-C losses                                                         0.00

! SOIL C BALANCE
!   =      FinalC -    InitialC - Additions +  Removals
!   =    26622.17 -    25593.00 -   1161.95 +    132.78 =               0.002


*DSSAT Cropping System Model Ver. 4.8.5.017 pre-release  JUN 28, 2025 01:30:15

*RUN   4        : Radiance                  CRGRO048 UFBA1701    1
 MODEL          : CRGRO048 - Strawberry
 EXPERIMENT     : UFBA1701 SR 2017 BALM STRAWBERRY VARIETY TRIAL
 DATA PATH      : /data/Strawberry/
 TREATMENT  1   : Radiance                  CRGRO048
  

! SOIL C BALANCE                                  Initial               Final
! all units in kg[C]/ha                          Year/DOY            Year/DOY
!                                                2017-273            2017-273
! SOIL & SURFACE ORGANIC C
!   Soil Organic C                               25593.00            25515.20
!   Surface Organic C                                0.00                0.00
!   Soil Litter C                                    0.00              171.81
!   Surface Litter C                                 0.00              166.54
!   Soil methane C stored                            0.00                0.00
!                                                --------            --------
! TOTAL C in Soil and Surface Layers             25593.00            25853.56

! ADDITIONS & REMOVALS:                         Additions            Removals
!   Harvest residues from prev crop                  0.00
!   Organic matter applications                      0.00
!   Senesced plant tissue                          338.36
!   CO2-C losses                                                        77.80
!   CH4-C losses                                                         0.00

! SOIL C BALANCE
!   =      FinalC -    InitialC - Additions +  Removals
!   =    25853.56 -    25593.00 -    338.36 +     77.80 =              -0.003


*DSSAT Cropping System Model Ver. 4.8.5.017 pre-release  JUN 28, 2025 01:30:23

*RUN   5        : Brilliance                CRGRO048 UFBA1701    2
 MODEL          : CRGRO048 - Strawberry
 EXPERIMENT     : UFBA1701 SR 2017 BALM STRAWBERRY VARIETY TRIAL
 DATA PATH      : /data/Strawberry/
 TREATMENT  2   : Brilliance                CRGRO048
  

! SOIL C BALANCE                                  Initial               Final
! all units in kg[C]/ha                          Year/DOY            Year/DOY
!                                                2017-273            2017-273
! SOIL & SURFACE ORGANIC C
!   Soil Organic C                               25593.00            25515.20
!   Surface Organic C                                0.00                0.00
!   Soil Litter C                                    0.00              179.26
!   Surface Litter C                                 0.00              186.63
!   Soil methane C stored                            0.00                0.00
!                                                --------            --------
! TOTAL C in Soil and Surface Layers             25593.00            25881.10

! ADDITIONS & REMOVALS:                         Additions            Removals
!   Harvest residues from prev crop                  0.00
!   Organic matter applications                      0.00
!   Senesced plant tissue                          365.90
!   CO2-C losses                                                        77.80
!   CH4-C losses                                                         0.00

! SOIL C BALANCE
!   =      FinalC -    InitialC - Additions +  Removals
!   =    25881.10 -    25593.00 -    365.90 +     77.80 =              -0.002


*DSSAT Cropping System Model Ver. 4.8.5.017 pre-release  JUN 28, 2025 01:30:37

*RUN   6        : Radiance                  CRGRO048 UFWM1401    1
 MODEL          : CRGRO048 - Strawberry
 EXPERIMENT     : UFWM1401 SR 2014 WIMAUMA STRAWBERRY GROWTH AND YIELD ANALYSIS
 DATA PATH      : /data/Strawberry/
 TREATMENT  1   : Radiance                  CRGRO048
  

! SOIL C BALANCE                                  Initial               Final
! all units in kg[C]/ha                          Year/DOY            Year/DOY
!                                                2014-273            2014-273
! SOIL & SURFACE ORGANIC C
!   Soil Organic C                               25593.00            25470.55
!   Surface Organic C                                0.00                0.00
!   Soil Litter C                                    0.00              611.22
!   Surface Litter C                                 0.00              758.13
!   Soil methane C stored                            0.00                0.00
!                                                --------            --------
! TOTAL C in Soil and Surface Layers             25593.00            26839.89

! ADDITIONS & REMOVALS:                         Additions            Removals
!   Harvest residues from prev crop                  0.00
!   Organic matter applications                      0.00
!   Senesced plant tissue                         1369.35
!   CO2-C losses                                                       122.45
!   CH4-C losses                                                         0.00

! SOIL C BALANCE
!   =      FinalC -    InitialC - Additions +  Removals
!   =    26839.89 -    25593.00 -   1369.35 +    122.45 =              -0.000


*DSSAT Cropping System Model Ver. 4.8.5.017 pre-release  JUN 28, 2025 01:30:49

*RUN   7        : Sensation                 CRGRO048 UFWM1401    2
 MODEL          : CRGRO048 - Strawberry
 EXPERIMENT     : UFWM1401 SR 2014 WIMAUMA STRAWBERRY GROWTH AND YIELD ANALYSIS
 DATA PATH      : /data/Strawberry/
 TREATMENT  2   : Sensation                 CRGRO048
  

! SOIL C BALANCE                                  Initial               Final
! all units in kg[C]/ha                          Year/DOY            Year/DOY
!                                                2014-273            2014-273
! SOIL & SURFACE ORGANIC C
!   Soil Organic C                               25593.00            25470.55
!   Surface Organic C                                0.00                0.00
!   Soil Litter C                                    0.00              631.12
!   Surface Litter C                                 0.00              763.78
!   Soil methane C stored                            0.00                0.00
!                                                --------            --------
! TOTAL C in Soil and Surface Layers             25593.00            26865.45

! ADDITIONS & REMOVALS:                         Additions            Removals
!   Harvest residues from prev crop                  0.00
!   Organic matter applications                      0.00
!   Senesced plant tissue                         1394.91
!   CO2-C losses                                                       122.45
!   CH4-C losses                                                         0.00

! SOIL C BALANCE
!   =      FinalC -    InitialC - Additions +  Removals
!   =    26865.45 -    25593.00 -   1394.91 +    122.45 =              -0.000

