*WARNING DETAIL FILE

******************************************************************************

*DSSAT Cropping System Model Ver. 4.8.5.017 pre-release  JUN 28, 2025 01:29:39

*RUN   1        : Radiance                  CRGRO048 UFBA1401    1
 MODEL          : CRGRO048 - Strawberry
 EXPERIMENT     : UFBA1401 SR 2014 BALM STRAWBERRY VARIETY TRIAL
 DATA PATH      : /data/Strawberry/
 TREATMENT  1   : Radiance                  CRGRO048
  

 SOILDYN  YEAR DOY = 2014 274
 Soil photosynthesis factor (SLPF) = 0.95                                      

 IPWTH   YEAR DOY = 2015   1
 Error opening weather file.                                                   
   /data/Strawberry/UFBA1501.WTH                                               
 Simulation will end.                                                          

******************************************************************************

*DSSAT Cropping System Model Ver. 4.8.5.017 pre-release  JUN 28, 2025 01:29:44

*RUN   2        : Radiance                  CRGRO048 UFBA1601    1
 MODEL          : CRGRO048 - Strawberry
 EXPERIMENT     : UFBA1601 SR 2016 BALM STRAWBERRY VARIETY TRIAL
 DATA PATH      : /data/Strawberry/
 TREATMENT  1   : Radiance                  CRGRO048
  

 SOILDYN  YEAR DOY = 2016 274
 Soil photosynthesis factor (SLPF) = 0.95                                      

******************************************************************************

*DSSAT Cropping System Model Ver. 4.8.5.017 pre-release  JUN 28, 2025 01:29:54

*RUN   3        : Brilliance                CRGRO048 UFBA1601    2
 MODEL          : CRGRO048 - Strawberry
 EXPERIMENT     : UFBA1601 SR 2016 BALM STRAWBERRY VARIETY TRIAL
 DATA PATH      : /data/Strawberry/
 TREATMENT  2   : Brilliance                CRGRO048
  

 SOILDYN  YEAR DOY = 2016 274
 Soil photosynthesis factor (SLPF) = 0.95                                      

******************************************************************************

*DSSAT Cropping System Model Ver. 4.8.5.017 pre-release  JUN 28, 2025 01:30:15

*RUN   4        : Radiance                  CRGRO048 UFBA1701    1
 MODEL          : CRGRO048 - Strawberry
 EXPERIMENT     : UFBA1701 SR 2017 BALM STRAWBERRY VARIETY TRIAL
 DATA PATH      : /data/Strawberry/
 TREATMENT  1   : Radiance                  CRGRO048
  

 SOILDYN  YEAR DOY = 2017 274
 Soil photosynthesis factor (SLPF) = 0.95                                      

 IPWTH   YEAR DOY = 2018   1
 Error opening weather file.                                                   
   /data/Strawberry/UFBA1801.WTH                                               
 Simulation will end.                                                          

******************************************************************************

*DSSAT Cropping System Model Ver. 4.8.5.017 pre-release  JUN 28, 2025 01:30:23

*RUN   5        : Brilliance                CRGRO048 UFBA1701    2
 MODEL          : CRGRO048 - Strawberry
 EXPERIMENT     : UFBA1701 SR 2017 BALM STRAWBERRY VARIETY TRIAL
 DATA PATH      : /data/Strawberry/
 TREATMENT  2   : Brilliance                CRGRO048
  

 SOILDYN  YEAR DOY = 2017 274
 Soil photosynthesis factor (SLPF) = 0.95                                      

 IPWTH   YEAR DOY = 2018   1
 Error opening weather file.                                                   
   /data/Strawberry/UFBA1801.WTH                                               
 Simulation will end.                                                          

******************************************************************************

*DSSAT Cropping System Model Ver. 4.8.5.017 pre-release  JUN 28, 2025 01:30:37

*RUN   6        : Radiance                  CRGRO048 UFWM1401    1
 MODEL          : CRGRO048 - Strawberry
 EXPERIMENT     : UFWM1401 SR 2014 WIMAUMA STRAWBERRY GROWTH AND YIELD ANALYSIS
 DATA PATH      : /data/Strawberry/
 TREATMENT  1   : Radiance                  CRGRO048
  

 SOILDYN  YEAR DOY = 2014 274
 Soil photosynthesis factor (SLPF) = 0.95                                      

******************************************************************************

*DSSAT Cropping System Model Ver. 4.8.5.017 pre-release  JUN 28, 2025 01:30:49

*RUN   7        : Sensation                 CRGRO048 UFWM1401    2
 MODEL          : CRGRO048 - Strawberry
 EXPERIMENT     : UFWM1401 SR 2014 WIMAUMA STRAWBERRY GROWTH AND YIELD ANALYSIS
 DATA PATH      : /data/Strawberry/
 TREATMENT  2   : Sensation                 CRGRO048
  

 SOILDYN  YEAR DOY = 2014 274
 Soil photosynthesis factor (SLPF) = 0.95                                      
