*Fresh Weight Output File

!----------------------------
! Variable Descriptions (unit)
!----------------------------
!YEAR  Year of current date of simulation
!DOY  Day of year (d)
!DAS  Days after start of simulation (d)
!PDMCD  Dry matter con. of harvested product (fraction)
!AFPWD  Average fresh fruit (pod, ear) weight (g/fruit)
!ADPWD  Average dry fruit (pod, ear) weight (g/fruit)
!PAGED  Age of oldest pod or ear (days)
!XMAGE  Required pod age for Multi-Harvest (days)
!TOSDN  Total Number of seeds (#/ha)
!TOWSD  Total Seed mass (kg/ha)
!TOSHN  Total Number of shells (#/ha)
!TOWSH  Total Shell mass (kg/ha)
!TOPOW  Total pod weight (kg/ha)
!TOFPW  Total pod (ear) fresh weight (kg/ha)
!MTFPW  Fresh weight of mature fruits (kg/ha)
!MTDPW  Dry weight of mature fruits (sd and sh)(kg/ha)
!MTDSD  Seed mass of mature fruits (kg/ha)
!MTDSH  Shell mass of mature fruits (kg/ha)
!HSHELWT  Harvested shell weight (kg/ha)
!HSDWT  Harvested seed weight (kg/ha)
!HPODWT  Harvested pod weight (kg/ha)
!HFPOW  Harvested fresh pod weight (kg/ha)
!CPODN  Cum. pod weight (kg/ha)
!CMFNM  Cum. mature fruit number (#)
!CHPDT  Cum. har. pod weight of mat. fruits (kg/ha)
!CHFPW  Cum. har. fresh weight of mat. fruits (kg/ha)
!CHNUM  Cum. harvest number (#)

*DSSAT Cropping System Model Ver. 4.8.5.017 pre-release  JUN 12, 2025 18:04:53

*RUN   1        : Radiance                  CRGRO048 UFBA1401    1
 MODEL          : CRGRO048 - Strawberry
 EXPERIMENT     : UFBA1401 SR 2014 BALM STRAWBERRY VARIETY TRIAL
 DATA PATH      :
 TREATMENT  1   : Radiance                  CRGRO048
  
@YEAR DOY   DAS   DAP    PDMCD    AFPWD    ADPWD    PAGED    XMAGE    CHNUM    TOSHN    TOWSH    MTDSH    HSHEL    TOPOW    HPODW    CHPDT    CPODN    TOFPW    MTFPW    MTDPW    HFPOW    CHFPW    CMFNM    TOSDN    TOWSD    MTDSD    HSDWT
 2014 311    38    29      0.0      0.0      0.0      0.0     10.0        0      0.5      0.0      0.0      0.0      0.0      0.0      0.0        0        0      0.0      0.0      0.0      0.0        0      0.0      0.0      0.0      0.0
 2014 312    39    30      0.2      0.3      0.1      0.8     10.0        0      0.7      0.4      0.0      0.0      0.4      0.0      0.0        0        2      0.0      0.0      0.0      0.0        0      0.0      0.0      0.0      0.0
 2014 313    40    31      0.2      0.7      0.1      1.7     10.0        0      0.9      1.0      0.0      0.0      1.0      0.0      0.0        0        6      0.0      0.0      0.0      0.0        0      0.0      0.0      0.0      0.0
 2014 314    41    32      0.2      0.9      0.1      2.6     10.0        0      1.2      1.7      0.0      0.0      1.7      0.0      0.0        0       11      0.0      0.0      0.0      0.0        0      0.0      0.0      0.0      0.0
 2014 315    42    33      0.2      1.1      0.2      3.4     10.0        0      1.5      2.7      0.0      0.0      2.7      0.0      0.0        0       17      0.0      0.0      0.0      0.0        0      0.0      0.0      0.0      0.0
 2014 316    43    34      0.2      1.8      0.3      4.2     10.0        0      1.8      5.3      0.0      0.0      5.3      0.0      0.0       10       33      0.0      0.0      0.0      0.0        0      0.0      0.0      0.0      0.0
 2014 317    44    35      0.2      2.1      0.3      4.8     10.0        0      2.0      7.0      0.0      0.0      7.0      0.0      0.0       20       44      0.0      0.0      0.0      0.0        0     77.1      0.0      0.0      0.0
 2014 318    45    36      0.2      3.0      0.5      5.6     10.0        0      2.1     10.1      0.0      0.0     10.3      0.0      0.0       30       64      0.0      0.0      0.0      0.0        0    110.1      0.2      0.0      0.0
 2014 319    46    37      0.2      4.0      0.6      6.3     10.0        0      2.2     13.2      0.0      0.0     13.8      0.0      0.0       40       86      0.0      0.0      0.0      0.0        0    137.5      0.6      0.0      0.0
 2014 320    47    38      0.2      5.5      0.9      7.1     10.0        0      2.2     18.3      0.0      0.0     19.3      0.0      0.0       60      121      0.0      0.0      0.0      0.0        0    184.8      1.1      0.0      0.0
 2014 321    48    39      0.2      7.3      1.2      7.9     10.0        0      2.3     24.8      0.0      0.0     26.6      0.0      0.0       90      166      0.0      0.0      0.0      0.0        0    236.9      1.8      0.0      0.0
 2014 322    49    40      0.2      8.1      1.3      8.4     10.0        0      2.3     28.2      0.0      0.0     30.5      0.0      0.0      120      191      0.0      0.0      0.0      0.0        0    281.4      2.3      0.0      0.0
 2014 323    50    41      0.2      8.7      1.4      8.8     10.0        0      2.4     30.6      0.0      0.0     33.3      0.0      0.0      150      208      0.0      0.0      0.0      0.0        0    281.4      2.6      0.0      0.0
 2014 324    51    42      0.2      9.6      1.5      9.3     10.0        0      2.4     34.2      0.0      0.0     37.3      0.0      0.0      190      233      0.0      0.0      0.0      0.0        0    321.6      3.2      0.0      0.0
 2014 325    52    43      0.2     11.3      1.8     10.1     10.0        0      2.5     41.3     14.7      0.0     45.5      0.0      0.0      240      284    102.7     16.4      0.0      0.0        0    334.9      4.2      1.7      0.0
 2014 326    53    44      0.2     12.8      2.0     11.0     10.0        0      2.8     50.7     22.7      0.0     56.3      0.0      0.0      300      352    159.6     25.5      0.0      0.0        1    343.4      5.6      2.8      0.0
 2014 327    54    45      0.2     14.4      2.3     11.7     10.0        0      2.9     60.0     25.4      0.0     66.9      0.0      0.0      370      418    178.9     28.6      0.0      0.0        2    356.1      7.0      3.2      0.0
 2014 328    55    46      0.2     16.2      2.6     12.4     10.0        1      2.9     67.7     31.9     31.9     76.1     36.3     36.3      450      475    227.1     36.3    227.1    227.1        3    373.6      8.4      4.4      4.4
 2014 329    56    47      0.2     13.1      2.1     13.1     10.0        1      2.3     42.9     10.3      0.0     47.9      0.0     36.3      500      299     73.1     11.7      0.0    227.1        3    259.3      5.0      1.4      0.0
 2014 330    57    48      0.2     13.2      2.1     13.8     10.0        1      2.5     47.7     22.2      0.0     53.4      0.0     36.3      550      334    156.7     25.1      0.0    227.1        4    275.3      5.6      2.9      0.0
 2014 331    58    49      0.2     13.6      2.2     14.4     10.0        1      2.7     51.7     32.3      0.0     57.9      0.0     36.3      610      362    229.3     36.7      0.0    227.1        5    290.2      6.2      4.3      0.0
 2014 332    59    50      0.2     13.8      2.2     14.8     10.0        1      2.8     54.0     33.1      0.0     60.6      0.0     36.3      670      379    235.3     37.6      0.0    227.1        6    290.2      6.6      4.5      0.0
 2014 333    60    51      0.2     14.7      2.3     15.3     10.0        1      2.8     58.0     42.7      0.0     65.2      0.0     36.3      740      408    304.1     48.7      0.0    227.1        7    321.5      7.3      6.0      0.0
 2014 334    61    52      0.2     15.3      2.4     16.1     10.0        1      2.9     63.5     47.2      0.0     71.9      0.0     36.3      810      449    338.7     54.2      0.0    227.1        8    342.9      8.4      7.0      0.0
 2014 335    62    53      0.2     15.4      2.5     17.0     10.0        2      3.2     68.3     49.2     49.2     78.0     57.2     93.5      890      487    357.4     57.2    357.4    584.5        9    354.3      9.7      8.0      8.0
 2014 336    63    54      0.2      7.4      1.2     17.9     10.0        2      2.2     24.3      2.8      0.0     26.6      0.0     93.5      920      166     19.5      3.1      0.0    584.5        9    170.3      2.3      0.4      0.0
 2014 337    64    55      0.2      8.2      1.3     18.8     10.0        2      2.6     30.7     10.0      0.0     33.8      0.0     93.5      950      211     70.2     11.2      0.0    584.5        9    231.8      3.0      1.3      0.0
 2014 338    65    56      0.2      8.0      1.3     19.6     10.0        3      3.3     38.0     15.6     15.6     41.9     17.7    111.2      990      262    110.5     17.7    110.5    695.0        9    264.9      4.0      2.1      2.1
 2014 339    66    57      0.2      5.9      0.9     20.5     10.0        3      3.4     29.7      3.1      0.0     32.4      0.0    111.2     1020      203     21.6      3.5      0.0    695.0        9    228.8      2.7      0.4      0.0
 2014 340    67    58      0.2      6.7      1.1     21.3     10.0        3      3.9     38.1     10.0      0.0     41.7      0.0    111.2     1060      261     70.7     11.3      0.0    695.0        9    267.1      3.6      1.3      0.0
 2014 341    68    59      0.2      7.2      1.1     22.2     10.0        3      4.5     46.8     15.3      0.0     51.4      0.0    111.2     1110      321    109.0     17.4      0.0    695.0        9    299.8      4.7      2.1      0.0
 2014 342    69    60      0.2      7.8      1.2     23.1     10.0        4      4.9     55.2     18.2     18.2     60.9     20.9    132.1     1170      381    130.5     20.9    130.5    825.5        9    370.0      5.7      2.7      2.7
 2014 343    70    61      0.2      6.0      1.0     23.8     10.0        4      5.1     44.7      4.5      0.0     48.4      0.0    132.1     1220      303     31.9      5.1      0.0    825.5        9    291.0      3.7      0.6      0.0
 2014 344    71    62      0.2      6.3      1.0     24.2     10.0        4      5.3     48.8     11.8      0.0     53.0      0.0    132.1     1270      331     83.2     13.3      0.0    825.5        9    398.5      4.2      1.5      0.0
 2014 345    72    63      0.2      6.8      1.1     24.7     10.0        5      5.4     54.5     17.3     17.3     59.3     19.5    151.6     1330      371    121.8     19.5    121.8    947.3        9    398.5      4.8      2.2      2.2
 2014 346    73    64      0.2      5.2      0.8     25.0     10.0        5      5.1     39.6      2.6      0.0     42.6      0.0    151.6     1370      266     18.1      2.9      0.0    947.3        9    394.7      3.0      0.3      0.0
 2014 347    74    65      0.2      5.9      0.9     25.5     10.0        5      5.3     46.0      6.4      0.0     49.7      0.0    151.6     1420      311     45.1      7.2      0.0    947.3        9    394.7      3.7      0.8      0.0
 2014 348    75    66      0.2      6.5      1.0     25.9     10.0        5      5.4     51.4      6.8      0.0     55.8      0.0    151.6     1480      349     47.7      7.6      0.0    947.3        9    458.9      4.4      0.9      0.0
 2014 349    76    67      0.2      7.3      1.2     26.4     10.0        6      5.5     58.8     13.5     13.5     64.1     15.2    166.8     1540      400     95.0     15.2     95.0   1042.3        9    458.9      5.2      1.7      1.7
 2014 350    77    68      0.2      6.7      1.1     26.9     10.0        6      5.2     51.5      0.0      0.0     55.9      0.0    166.8     1600      349      0.0      0.0      0.0   1042.3        9    465.1      4.4      0.0      0.0
 2014 351    78    69      0.2      7.9      1.3     27.6     10.0        6      5.3     60.9      7.5      0.0     66.5      0.0    166.8     1670      416     52.4      8.4      0.0   1042.3        9    518.1      5.6      0.9      0.0
 2014 352    79    70      0.2      8.4      1.3     28.1     10.0        7      5.5     67.7     13.8     13.8     74.3     15.6    182.3     1740      464     97.4     15.6     97.4   1139.7        9    582.7      6.6      1.7      1.7
 2014 353    80    71      0.2      7.2      1.2     28.7     10.0        7      6.0     63.3      0.0      0.0     69.5      0.0    182.3     1810      435      0.0      0.0      0.0   1139.7        9    547.9      6.2      0.0      0.0
 2014 354    81    72      0.2      7.7      1.2     29.5     10.0        7      7.0     77.7     13.6      0.0     85.8      0.0    182.3     1900      536     96.2     15.4      0.0   1139.7        9    600.9      8.1      1.8      0.0
 2014 355    82    73      0.2      8.4      1.3     30.3     10.0        7      7.9     96.2     36.5      0.0    106.7      0.0    182.3     2010      667    257.5     41.2      0.0   1139.7       10    656.8     10.5      4.7      0.0
 2014 356    83    74      0.2      9.3      1.5     31.2     10.0        8      8.7    116.4     54.9     54.9    129.6     62.5    244.8     2140      810    390.5     62.5    390.5   1530.1       11    715.9     13.2      7.5      7.5
 2014 357    84    75      0.2      6.6      1.1     31.9     10.0        8      8.1     78.0     13.2      0.0     85.6      0.0    244.8     2230      535     93.0     14.9      0.0   1530.1       11    499.9      7.6      1.7      0.0
 2014 358    85    76      0.2      7.6      1.2     32.7     10.0        9      8.8     97.0     29.9     29.9    106.7     33.9    278.7     2340      667    211.9     33.9    211.9   1742.1       12    571.0      9.7      4.0      4.0
 2014 359    86    77      0.2      6.0      1.0     33.5     10.0        9      9.1     80.7     10.8      0.0     87.8      0.0    278.7     2430      549     76.5     12.2      0.0   1742.1       12    582.8      7.1      1.5      0.0
 2014 360    87    78      0.2      6.5      1.0     34.3     10.0        9     10.2     98.0     32.2      0.0    106.8      0.0    278.7     2540      668    228.9     36.6      0.0   1742.1       13    759.3      8.9      4.4      0.0
 2014 361    88    79      0.2      7.7      1.2     35.2     10.0        9     11.1    124.2     45.6      0.0    136.2      0.0    278.7     2680      851    325.6     52.1      0.0   1742.1       14    917.5     12.1      6.5      0.0
 2014 362    89    80      0.2      8.7      1.4     36.0     10.0        9     12.0    151.5     59.4      0.0    167.2      0.0    278.7     2850     1045    426.3     68.2      0.0   1742.1       15   1050.9     15.7      8.8      0.0
 2014 363    90    81      0.2      9.9      1.6     36.9     10.0       10     12.9    183.7     73.7     73.7    203.6     85.2    363.9     3050     1273    532.5     85.2    532.5   2274.6       17   1186.8     20.0     11.5     11.5
 2014 364    91    82      0.2      7.7      1.2     37.9     10.0       10     11.6    130.6      8.7      0.0    142.7      0.0    363.9     3190      892     61.0      9.8      0.0   2274.6       17   1200.6     12.1      1.1      0.0
 2014 365    92    83      0.2      8.7      1.4     38.9     10.0       10     12.2    154.2     52.6      0.0    170.9      0.0    363.9     3360     1068    370.0     59.2      0.0   2274.6       18   1409.0     16.7      6.6      0.0
 2015 001    93    84      0.2      8.7      1.4     38.9     10.0       10     12.2    154.2     52.6      0.0    170.9      0.0    363.9     3360     1068    370.0     59.2      0.0   2274.6       18   1409.0     16.7      6.6      0.0
