*SIMULATION OVERVIEW FILE

*DSSAT Cropping System Model Ver. 4.8.5.017 pre-release  JUN 12, 2025 18:04:53

*RUN   1        : Radiance                  CRGRO048 UFBA1401    1
 MODEL          : CRGRO048 - Strawberry
 EXPERIMENT     : UFBA1401 SR 2014 BALM STRAWBERRY VARIETY TRIAL
 DATA PATH      :
 TREATMENT  1   : Radiance                  CRGRO048


 CROP           : Strawberry       CULTIVAR : Radiance         ECOTYPE :SR0001
 STARTING DATE  : OCT  1 2014
 PLANTING DATE  : OCT  9 2014      PLANTS/m2 :     4.3    ROW SPACING : 121.cm
 HARVEST DATE   : NOV 23 2014
 WEATHER        : UFBA   2014
 SOIL           : UFGA010700     TEXTURE : -99   - Candler
 WATER BALANCE  : NOT SIMULATED ; NO H2O-STRESS
 IRRIGATION     :
 NITROGEN BAL.  : NOT SIMULATED ; NO N-STRESS
 N-FERTILIZER   :
 RESIDUE/MANURE :
 ENVIRONM. OPT. : DAYL=    0.00  SRAD=    0.00  TMAX=    0.00  TMIN=    0.00
                  RAIN=    0.00  CO2 =    0.00  DEW =    0.00  WIND=    0.00
 SIMULATION OPT : WATER   :N  NITROGEN:N  N-FIX:N  PHOSPH :N  PESTS  :N
                  PHOTO   :L  ET      :R  INFIL:S  HYDROL :R  SOM    :G
                  CO2 399ppm  NSWIT   :1  EVAP :R  SOIL   :2  STEMP  :D
 MANAGEMENT OPT : PLANTING:R  IRRIG   :R  FERT :R  RESIDUE:R  HARVEST:R
                  WEATHER :M  TILLAGE :N

*SUMMARY OF SOIL AND GENETIC INPUT PARAMETERS

 Strawberry       CULTIVAR: SR0001-Radiance           ECOTYPE: SR0001
 CSDVAR :12.33  PPSEN  : 0.00  EMG-FLW:26.00  FLW-FSD: 8.20  FSD-PHM :110.00
 WTPSD  :0.005  SDPDVR :185.0  SDFDUR :11.70  PODDUR :45.00  XFRUIT  :  0.96
 THRESH : 20.0  SDPRO  :0.300  SDLIP   : 0.050


*SIMULATED CROP AND SOIL STATUS AT MAIN DEVELOPMENT STAGES

 RUN NO.     1     Radiance                

        CROP GROWTH     BIOMASS         LEAF   CROP N     STRESS      STRESS                                           
   DATE  AGE STAGE        kg/ha    LAI   NUM  kg/ha  %   H2O  Nitr Phos1 Phos2  RSTG                                   
 ------  --- ----------   -----  -----  ----  ---  ---  ----  ----  ----  ----  ----                                   
  1 OCT    0 Start Sim        0   0.00   0.0    0  0.0  0.00  0.00  0.00  0.00     0
  9 OCT    0 Transplant     123   0.07   4.6    4  3.6  0.00  0.00  0.00  0.00     0
  1 NOV   23 First Flwr     329   0.19  12.3   11  3.3  0.00  0.00  0.00  0.00     1
  7 NOV   29 First Pod      446   0.29  14.1   15  3.3  0.00  0.00  0.00  0.00     2
 12 NOV   34 First Pod      563   0.38  15.7   19  3.4  0.00  0.00  0.00  0.00     5
 12 NOV   34 First Seed     563   0.38  15.7   19  3.4  0.00  0.00  0.00  0.00     5
  1 JAN   84 Harvest       1804   1.34  28.3   63  3.5  0.00  0.00  0.00  0.00     5


*MAIN GROWTH AND DEVELOPMENT VARIABLES

@     VARIABLE                                         SIMULATED     MEASURED
      --------                                         ---------     --------
      Anthesis day (dap)                                      23          -99
      First pod day (dap)                                     34          -99
      First seed day (dap)                                    34          -99
      Physiological maturity day (dap)                       -99          -99
      Yield at harvest maturity (kg [dm]/ha)                  17          -99
      Pod/Ear/Panicle weight at maturity (kg [dm]/ha)         52          -99
      Tops weight at anthesis (kg [dm]/ha)                   329          -99
      Biomass at maturity (total crop minus roots) (kg[d    1804          -99
      By-product produced (stalk) at maturity (kg[dm]/ha    1790          -99
      Number at maturity (no/m2)                            1409          -99
      Unit wt at maturity (g [dm]/unit)                   0.0012          -99
      Number at maturity (no/unit)                        185.00          -99
      Harvest index at maturity                            0.009          -99
      Threshing % at maturity                              31.89          -99
      Leaf area index, maximum                              1.37          -99
      Leaf number per stem at maturity                     28.31          -99
      Canopy height (m)                                     0.21          -99
      Tops N at anthesis (kg/ha)                              11          -99
      Tops N at maturity (kg/ha)                              63          -99
      Stem N at maturity (kg/ha)                              23          -99
      Grain N at maturity (kg/ha)                              1          -99
      Grain N at maturity (%)                               4.56          -99
      Grain oil at maturity (%)                             3.65          -99


*ENVIRONMENTAL AND STRESS FACTORS

 |-----Development Phase------|--------------------------------------Environment--------------------------------------|-----------------Stress-----------------|
                              |---------------Average--------------|-----Cumulative-----|--------Count of days--------|          (0=Min, 1=Max Stress)         |
                         Time  Temp  Temp  Temp Solar Photop                Evapo    Pot TMIN TMIN TMAX TMAX TMAX RAIN|----Water----|---Nitrogen--|-Phosphorus-|
                         Span   Max   Min  Mean   Rad  [day]    CO2   Rain  Trans     ET   <    <    >    >    >    >   Photo         Photo         Photo
                         days     C     C     C MJ/m2     hr    ppm     mm     mm    mm   0 C  2 C 30 C 32 C 34 C  0mm  synth Growth  synth Growth  synth Growth
----------------------------------------------------------------------------------------------------------------------------------------------------------------
 First Flower-First Seed   11  24.7  11.3  18.0  14.6  10.76  399.3   12.7    0.0    0.0    0    0    0    0    0    3  0.000  0.000  0.000  0.000  0.000  0.000
 First Seed - Phys. Mat.   50  23.1  11.4  17.3  10.4  10.35  399.5  193.9    0.0    0.0    0    0    0    0    0   12  0.000  0.000  0.000  0.000  0.000  0.000
   
 Planting to Harvest       85  24.8  12.5  18.7  12.9  10.64  399.4  249.8    0.0    0.0    0    0    5    1    0   18  0.000  0.000  0.000  0.000  0.000  0.000
----------------------------------------------------------------------------------------------------------------------------------------------------------------

--------------------------------------------------------------------------------------------------------------

                Strawberry YIELD :       52 kg/ha    [Dry weight] 

**************************************************************************************************************
