*Fresh Weight Output File

!----------------------------
! Variable Descriptions (unit)
!----------------------------
!YEAR  Year of current date of simulation
!DOY  Day of year (d)
!DAS  Days after start of simulation (d)
!PDMCD  Dry matter con. of harvested product (fraction)
!AFPWD  Average fresh fruit (pod, ear) weight (g/fruit)
!ADPWD  Average dry fruit (pod, ear) weight (g/fruit)
!PAGED  Age of oldest pod or ear (days)
!XMAGE  Required pod age for Multi-Harvest (days)
!TOSDN  Total Number of seeds (#/ha)
!TOWSD  Total Seed mass (kg/ha)
!TOSHN  Total Number of shells (#/ha)
!TOWSH  Total Shell mass (kg/ha)
!TOPOW  Total pod weight (kg/ha)
!TOFPW  Total pod (ear) fresh weight (kg/ha)
!MTFPW  Fresh weight of mature fruits (kg/ha)
!MTDPW  Dry weight of mature fruits (sd and sh)(kg/ha)
!MTDSD  Seed mass of mature fruits (kg/ha)
!MTDSH  Shell mass of mature fruits (kg/ha)
!HSHELWT  Harvested shell weight (kg/ha)
!HSDWT  Harvested seed weight (kg/ha)
!HPODWT  Harvested pod weight (kg/ha)
!HFPOW  Harvested fresh pod weight (kg/ha)
!CPODN  Cum. pod weight (kg/ha)
!CMFNM  Cum. mature fruit number (#)
!CHPDT  Cum. har. pod weight of mat. fruits (kg/ha)
!CHFPW  Cum. har. fresh weight of mat. fruits (kg/ha)
!CHNUM  Cum. harvest number (#)

*DSSAT Cropping System Model Ver. 4.8.5.017 pre-release  JUN 28, 2025 04:27:17

*RUN   1        : Radiance                  CRGRO048 UFWM1401    1
 MODEL          : CRGRO048 - Strawberry
 EXPERIMENT     : UFWM1401 SR 2014 WIMAUMA STRAWBERRY GROWTH AND YIELD ANALYSIS
 DATA PATH      :
 TREATMENT  1   : Radiance                  CRGRO048
  
@YEAR DOY   DAS   DAP    PDMCD    AFPWD    ADPWD    PAGED    XMAGE    CHNUM    TOSHN    TOWSH    MTDSH    HSHEL    TOPOW    HPODW    CHPDT    CPODN    TOFPW    MTFPW    MTDPW    HFPOW    CHFPW    CMFNM    TOSDN    TOWSD    MTDSD    HSDWT
 2014 309    36    27      0.0      0.0      0.0      0.0     10.0        0      0.0      0.0      0.0      0.0      0.0      0.0      0.0        0        0      0.0      0.0      0.0      0.0        0      0.0      0.0      0.0      0.0
 2014 310    37    28      0.0      0.0      0.0      0.8     10.0        0      0.1      0.0      0.0      0.0      0.0      0.0      0.0        0        0      0.0      0.0      0.0      0.0        0      0.0      0.0      0.0      0.0
 2014 311    38    29      0.2      0.1      0.0      1.7     10.0        0      0.3      0.1      0.0      0.0      0.1      0.0      0.0        0        0      0.0      0.0      0.0      0.0        0      0.0      0.0      0.0      0.0
 2014 312    39    30      0.2      0.3      0.1      2.5     10.0        0      0.6      0.3      0.0      0.0      0.3      0.0      0.0        0        2      0.0      0.0      0.0      0.0        0      0.0      0.0      0.0      0.0
 2014 313    40    31      0.2      0.6      0.1      3.4     10.0        0      0.8      0.8      0.0      0.0      0.8      0.0      0.0        0        5      0.0      0.0      0.0      0.0        0      0.0      0.0      0.0      0.0
 2014 314    41    32      0.2      0.8      0.1      4.3     10.0        0      1.1      1.4      0.0      0.0      1.4      0.0      0.0        0        9      0.0      0.0      0.0      0.0        0      0.0      0.0      0.0      0.0
 2014 315    42    33      0.2      1.1      0.2      5.1     10.0        0      1.4      2.5      0.0      0.0      2.5      0.0      0.0        0       16      0.0      0.0      0.0      0.0        0     11.9      0.0      0.0      0.0
 2014 316    43    34      0.2      1.9      0.3      5.9     10.0        0      1.5      4.6      0.0      0.0      4.6      0.0      0.0        0       29      0.0      0.0      0.0      0.0        0     11.9      0.0      0.0      0.0
 2014 317    44    35      0.2      2.4      0.4      6.5     10.0        0      1.6      6.1      0.0      0.0      6.2      0.0      0.0       10       39      0.0      0.0      0.0      0.0        0     56.3      0.1      0.0      0.0
 2014 318    45    36      0.2      3.3      0.5      7.3     10.0        0      1.7      8.6      0.0      0.0      8.9      0.0      0.0       20       56      0.0      0.0      0.0      0.0        0     96.6      0.2      0.0      0.0
 2014 319    46    37      0.2      4.2      0.7      8.0     10.0        0      1.8     11.4      0.0      0.0     11.9      0.0      0.0       30       74      0.0      0.0      0.0      0.0        0    128.6      0.5      0.0      0.0
 2014 320    47    38      0.2      5.8      0.9      8.8     10.0        0      1.9     16.1      0.0      0.0     17.1      0.0      0.0       50      107      0.0      0.0      0.0      0.0        0    186.3      1.0      0.0      0.0
 2014 321    48    39      0.2      7.5      1.2      9.7     10.0        0      2.0     22.5      0.0      0.0     24.3      0.0      0.0       70      152      0.0      0.0      0.0      0.0        0    238.6      1.8      0.0      0.0
 2014 322    49    40      0.2      8.1      1.3     10.2     10.0        0      2.1     25.7      0.0      0.0     27.9      0.0      0.0      100      174      0.0      0.0      0.0      0.0        0    252.1      2.2      0.0      0.0
 2014 323    50    41      0.2      8.6      1.4     10.6     10.0        0      2.2     27.8      0.0      0.0     30.3      0.0      0.0      130      189      0.0      0.0      0.0      0.0        0    252.1      2.5      0.0      0.0
 2014 324    51    42      0.2      9.1      1.5     11.1     10.0        0      2.3     30.9      2.3      0.0     33.8      0.0      0.0      160      211     15.9      2.6      0.0      0.0        0    264.8      3.0      0.3      0.0
 2014 325    52    43      0.2     10.4      1.7     11.9     10.0        0      2.4     36.9     10.8      0.0     40.7      0.0      0.0      200      254     75.9     12.1      0.0      0.0        0    281.6      3.8      1.3      0.0
 2014 326    53    44      0.2     11.4      1.8     12.8     10.0        0      2.7     45.1     19.5      0.0     50.1      0.0      0.0      250      313    137.4     22.0      0.0      0.0        1    293.7      5.0      2.5      0.0
 2014 327    54    45      0.2     12.6      2.0     13.6     10.0        0      3.0     53.6     27.7      0.0     59.9      0.0      0.0      310      374    195.6     31.3      0.0      0.0        2    312.6      6.2      3.6      0.0
 2014 328    55    46      0.2     14.1      2.3     14.3     10.0        1      3.1     61.7     40.7     40.7     69.3     46.3     46.3      380      433    289.1     46.3    289.1    289.1        3    339.3      7.5      5.6      5.6
 2014 329    56    47      0.2      8.1      1.3     15.2     10.0        1      2.2     26.6     10.3      0.0     29.2      0.0     46.3      410      182     72.6     11.6      0.0    289.1        3    182.4      2.6      1.3      0.0
 2014 330    57    48      0.2      8.3      1.3     15.9     10.0        1      2.5     30.3     11.1      0.0     33.4      0.0     46.3      440      209     78.6     12.6      0.0    289.1        3    202.0      3.1      1.4      0.0
 2014 331    58    49      0.2      8.3      1.3     16.4     10.0        1      2.8     33.6     14.5      0.0     37.0      0.0     46.3      480      231    102.6     16.4      0.0    289.1        3    224.5      3.5      1.9      0.0
 2014 332    59    50      0.2      8.9      1.4     16.8     10.0        1      2.8     35.8     17.4      0.0     39.6      0.0     46.3      520      247    123.6     19.8      0.0    289.1        3    224.5      3.8      2.3      0.0
 2014 333    60    51      0.2      9.3      1.5     17.4     10.0        1      2.9     39.0     21.0      0.0     43.3      0.0     46.3      560      271    149.6     23.9      0.0    289.1        4    268.2      4.3      2.9      0.0
 2014 334    61    52      0.2     10.0      1.6     18.2     10.0        1      3.1     44.6     23.9      0.0     49.8      0.0     46.3      610      311    171.7     27.5      0.0    289.1        5    304.6      5.2      3.5      0.0
 2014 335    62    53      0.2     10.5      1.7     19.1     10.0        2      3.4     51.3     28.2     28.2     57.6     32.6     78.8      670      360    203.6     32.6    203.6    492.7        6    325.0      6.3      4.4      4.4
 2014 336    63    54      0.2      6.9      1.1     20.0     10.0        2      3.0     30.2      5.1      0.0     32.9      0.0     78.8      700      206     35.8      5.7      0.0    492.7        6    234.0      2.7      0.6      0.0
 2014 337    64    55      0.2      7.6      1.2     20.9     10.0        2      3.5     39.0     11.5      0.0     42.7      0.0     78.8      740      267     80.5     12.9      0.0    492.7        6    321.3      3.7      1.4      0.0
 2014 338    65    56      0.2      7.7      1.2     21.8     10.0        3      4.4     48.6     16.0     16.0     53.6     18.1     96.9      790      335    113.2     18.1    113.2    605.9        6    362.0      5.0      2.1      2.1
 2014 339    66    57      0.2      6.2      1.0     22.7     10.0        3      4.7     43.0      4.6      0.0     47.0      0.0     96.9      840      294     32.3      5.2      0.0    605.9        6    327.5      4.0      0.6      0.0
 2014 340    67    58      0.2      7.0      1.1     23.5     10.0        3      5.4     55.1     14.2      0.0     60.5      0.0     96.9      900      378    100.4     16.1      0.0    605.9        6    386.1      5.4      1.9      0.0
 2014 341    68    59      0.2      7.6      1.2     24.5     10.0        3      6.1     67.2     26.9      0.0     74.1      0.0     96.9      970      463    191.0     30.6      0.0    605.9        7    435.6      6.8      3.7      0.0
 2014 342    69    60      0.2      8.4      1.3     25.4     10.0        4      6.5     78.8     34.6     34.6     87.1     39.6    136.5     1060      544    247.2     39.6    247.2    853.1        8    539.2      8.3      4.9      4.9
 2014 343    70    61      0.2      5.7      0.9     26.0     10.0        4      6.3     53.2      7.6      0.0     57.5      0.0    136.5     1120      359     53.5      8.6      0.0    853.1        8    530.1      4.3      0.9      0.0
 2014 344    71    62      0.2      6.1      1.0     26.5     10.0        4      6.6     59.4     16.4      0.0     64.5      0.0    136.5     1180      403    115.4     18.5      0.0    853.1        8    530.1      5.1      2.0      0.0
 2014 345    72    63      0.2      6.6      1.1     26.9     10.0        5      6.9     66.5     17.4     17.4     72.4     19.6    156.1     1250      452    122.4     19.6    122.4    975.5        8    530.1      5.9      2.2      2.2
 2014 346    73    64      0.2      5.4      0.9     27.2     10.0        5      6.5     52.4      0.0      0.0     56.5      0.0    156.1     1310      353      0.0      0.0      0.0    975.5        8    551.0      4.1      0.0      0.0
 2014 347    74    65      0.2      6.1      1.0     27.7     10.0        5      6.7     59.8      7.5      0.0     64.9      0.0    156.1     1370      405     52.5      8.4      0.0    975.5        8    551.0      5.1      0.9      0.0
 2014 348    75    66      0.2      6.7      1.1     28.2     10.0        5      6.9     67.2      7.9      0.0     73.3      0.0    156.1     1440      458     55.6      8.9      0.0    975.5        8    641.7      6.1      1.0      0.0
 2014 349    76    67      0.2      7.4      1.2     28.6     10.0        6      7.0     75.6     16.0     16.0     82.9     18.0    174.1     1520      518    112.4     18.0    112.4   1087.9        8    641.7      7.2      2.0      2.0
 2014 350    77    68      0.2      7.0      1.1     29.1     10.0        6      6.7     68.6     10.2      0.0     75.0      0.0    174.1     1600      469     71.6     11.5      0.0   1087.9        8    648.0      6.4      1.2      0.0
 2014 351    78    69      0.2      8.2      1.3     29.8     10.0        6      6.8     81.2     11.2      0.0     89.3      0.0    174.1     1690      558     78.5     12.6      0.0   1087.9        8    705.3      8.1      1.4      0.0
 2014 352    79    70      0.2      8.7      1.4     30.3     10.0        7      7.1     90.2     20.6     20.6     99.6     23.2    197.2     1790      623    144.7     23.2    144.7   1232.6        9    784.2      9.4      2.6      2.6
 2014 353    80    71      0.2      7.4      1.2     31.0     10.0        7      7.6     81.9     17.5      0.0     90.5      0.0    197.2     1880      566    122.9     19.7      0.0   1232.6       10    717.3      8.6      2.2      0.0
 2014 354    81    72      0.2      7.9      1.3     31.8     10.0        7      8.8    100.1     19.6      0.0    111.2      0.0    197.2     1990      695    138.4     22.1      0.0   1232.6       11    785.0     11.0      2.5      0.0
 2014 355    82    73      0.2      8.8      1.4     32.7     10.0        8      9.8    123.8     50.8     50.8    137.9     57.6    254.8     2130      862    359.9     57.6    359.9   1592.5       12    860.8     14.1      6.8      6.8
 2014 356    83    74      0.2      7.0      1.1     33.5     10.0        8      9.4     94.9     21.2      0.0    104.8      0.0    254.8     2230      655    150.2     24.0      0.0   1592.5       13    684.2      9.9      2.8      0.0
 2014 357    84    75      0.2      8.0      1.3     34.3     10.0        8     10.3    119.0     41.6      0.0    131.7      0.0    254.8     2360      823    296.0     47.4      0.0   1592.5       14    735.5     12.8      5.7      0.0
 2014 358    85    76      0.2      9.2      1.5     35.2     10.0        9     11.0    145.9     61.1     61.1    161.8     70.0    324.8     2520     1011    437.7     70.0    437.7   2030.2       16   1017.7     15.9      8.9      8.9
 2014 359    86    77      0.2      6.7      1.1     36.0     10.0        9     10.6    104.3     11.6      0.0    113.5      0.0    324.8     2630      709     82.0     13.1      0.0   2030.2       16    947.9      9.1      1.6      0.0
 2014 360    87    78      0.2      7.2      1.2     36.8     10.0        9     11.9    125.8     36.7      0.0    137.8      0.0    324.8     2770      861    260.9     41.8      0.0   2030.2       17    947.9     12.0      5.1      0.0
 2014 361    88    79      0.2      8.5      1.4     37.7     10.0        9     13.1    161.7     53.4      0.0    177.6      0.0    324.8     2950     1110    381.5     61.0      0.0   2030.2       18   1133.8     15.9      7.6      0.0
 2014 362    89    80      0.2      9.6      1.5     38.6     10.0        9     14.2    196.8     70.7      0.0    217.2      0.0    324.8     3170     1358    508.2     81.3      0.0   2030.2       20   1474.3     20.5     10.6      0.0
 2014 363    90    81      0.2     10.6      1.7     39.4     10.0       10     15.4    234.9     88.2     88.2    261.2    102.1    426.9     3430     1632    638.2    102.1    638.2   2668.4       22   1630.0     26.3     13.9     13.9
 2014 364    91    82      0.2      8.4      1.3     40.4     10.0       10     13.9    167.7     28.0      0.0    185.1      0.0    426.9     3620     1157    196.4     31.4      0.0   2668.4       23   1453.5     17.4      3.4      0.0
 2014 365    92    83      0.2      9.2      1.5     41.4     10.0       10     14.6    190.9     69.9      0.0    213.7      0.0    426.9     3830     1335    492.2     78.8      0.0   2668.4       25   1679.7     22.8      8.9      0.0
 2015 001    93    84      0.2     10.4      1.7     42.4     10.0       10     15.9    235.9    118.4      0.0    264.3      0.0    426.9     4090     1652    839.6    134.3      0.0   2668.4       28   1910.9     28.4     16.0      0.0
 2015 002    94    85      0.2     11.6      1.9     43.2     10.0       11     17.4    285.7    159.8    159.8    322.0    182.4    609.4     4410     2013   1140.0    182.4   1140.0   3808.4       32   2137.4     36.3     22.6     22.6
 2015 003    95    86      0.2      8.1      1.3     44.0     10.0       11     14.7    172.1     35.0      0.0    191.7      0.0    609.4     4600     1198    243.9     39.0      0.0   3808.4       33   1618.2     19.6      4.0      0.0
 2015 004    96    87      0.2      9.9      1.6     44.9     10.0       11     15.6    221.8     71.1      0.0    248.2      0.0    609.4     4850     1551    504.4     80.7      0.0   3808.4       35   1736.6     26.4      9.6      0.0
 2015 005    97    88      0.2     11.3      1.8     45.8     10.0       12     16.5    265.0    100.8    100.8    297.9    115.8    725.2     5150     1862    723.9    115.8    723.9   4532.3       38   1865.5     32.9     15.0     15.0
 2015 006    98    89      0.2      9.4      1.5     46.6     10.0       12     15.0    202.2     36.3      0.0    225.0      0.0    725.2     5370     1406    260.7     41.7      0.0   4532.3       39   1599.0     22.7      5.4      0.0
 2015 007    99    90      0.2      9.7      1.6     47.2     10.0       12     16.2    226.3     78.5      0.0    252.4      0.0    725.2     5620     1578    563.7     90.2      0.0   4532.3       41   1599.0     26.1     11.7      0.0
 2015 008   100    91      0.2      9.9      1.6     47.6     10.0       13     16.9    239.4     81.6     81.6    267.4     93.9    819.0     5890     1671    586.7     93.9    586.7   5119.1       43   1820.4     28.0     12.2     12.2
 2015 009   101    92      0.2      8.1      1.3     48.0     10.0       13     14.7    172.6     42.7      0.0    190.4      0.0    819.0     6080     1190    302.8     48.5      0.0   5119.1       44   1373.5     17.8      5.7      0.0
 2015 010   102    93      0.2      8.3      1.3     48.5     10.0       13     15.7    189.8     45.1      0.0    209.9      0.0    819.0     6290     1312    320.1     51.2      0.0   5119.1       45   1567.8     20.2      6.1      0.0
 2015 011   103    94      0.2      9.4      1.5     49.3     10.0       13     17.0    229.2     93.4      0.0    254.6      0.0    819.0     6540     1591    663.1    106.1      0.0   5119.1       47   1705.0     25.5     12.7      0.0
 2015 012   104    95      0.2     10.5      1.7     50.2     10.0       14     17.9    268.9    140.9    140.9    301.5    161.0    980.1     6840     1884   1006.5    161.0   1006.5   6125.6       51   1841.6     32.6     20.1     20.1
 2015 013   105    96      0.2      7.2      1.1     51.1     10.0       14     16.0    166.2     23.3      0.0    183.2      0.0    980.1     7020     1145    164.0     26.2      0.0   6125.6       52   1352.4     17.0      3.0      0.0
 2015 014   106    97      0.2      8.5      1.4     52.1     10.0       14     17.0    208.3     51.4      0.0    230.3      0.0    980.1     7250     1439    363.0     58.1      0.0   6125.6       53   1692.8     21.9      6.7      0.0
 2015 015   107    98      0.2      9.2      1.5     52.8     10.0       15     17.8    237.1     97.1     97.1    263.3    109.9   1090.0     7510     1646    687.2    109.9    687.2   6812.8       56   1978.7     26.2     12.8     12.8
 2015 016   108    99      0.2      6.6      1.1     53.5     10.0       15     17.6    169.9     38.2      0.0    187.0      0.0   1090.0     7700     1169    271.0     43.4      0.0   6812.8       57   1501.6     17.0      5.1      0.0
 2015 017   109   100      0.2      7.0      1.1     54.1     10.0       15     19.5    198.3     74.1      0.0    218.8      0.0   1090.0     7920     1368    525.4     84.1      0.0   6812.8       59   1744.0     20.5     10.0      0.0
 2015 018   110   101      0.2      7.9      1.3     54.9     10.0       15     21.2    241.5     81.9      0.0    267.4      0.0   1090.0     8190     1671    582.4     93.2      0.0   6812.8       61   1953.0     25.9     11.3      0.0
 2015 019   111   102      0.2      8.4      1.3     55.4     10.0       16     22.6    272.9    110.1    110.1    303.1    125.7   1215.7     8490     1895    785.3    125.7    785.3   7598.1       64   2278.8     30.2     15.5     15.5
 2015 020   112   103      0.2      6.3      1.0     56.1     10.0       16     21.1    194.6     24.3      0.0    213.5      0.0   1215.7     8700     1335    171.0     27.4      0.0   7598.1       65   1726.0     18.9      3.1      0.0
 2015 021   113   104      0.2      7.1      1.1     56.8     10.0       16     23.4    241.3     58.9      0.0    265.8      0.0   1215.7     8970     1661    415.6     66.5      0.0   7598.1       67   1953.8     24.6      7.6      0.0
 2015 022   114   105      0.2      8.2      1.3     57.7     10.0       17     25.4    303.7    124.5    124.5    335.4    140.8   1356.5     9310     2096    879.9    140.8    879.9   8478.0       71   2475.9     31.8     16.3     16.3
 2015 023   115   106      0.2      6.9      1.1     58.6     10.0       17     24.0    242.3     49.9      0.0    265.3      0.0   1356.5     9580     1658    354.3     56.7      0.0   8478.0       73   2136.0     23.0      6.8      0.0
 2015 024   116   107      0.2      7.5      1.2     59.3     10.0       17     26.2    285.7     54.4      0.0    314.1      0.0   1356.5     9890     1963    386.8     61.9      0.0   8478.0       75   2415.1     28.5      7.5      0.0
 2015 025   117   108      0.2      7.7      1.2     59.7     10.0       17     28.0    314.2    101.2      0.0    346.4      0.0   1356.5    10240     2165    717.2    114.8      0.0   8478.0       78   2671.6     32.2     13.5      0.0
 2015 026   118   109      0.2      8.2      1.3     60.4     10.0       18     30.8    365.5    144.8    144.8    404.6    164.4   1520.9    10640     2529   1027.5    164.4   1027.5   9505.6       82   2905.4     39.1     19.6     19.6
 2015 027   119   110      0.2      6.0      1.0     60.9     10.0       18     28.0    247.4      0.0      0.0    270.4      0.0   1520.9    10910     1690      0.0      0.0      0.0   9505.6       82   2168.1     23.0      0.0      0.0
 2015 028   120   111      0.2      6.3      1.0     61.3     10.0       18     29.8    273.9     55.9      0.0    300.3      0.0   1520.9    11210     1877    397.2     63.5      0.0   9505.6       84   2519.9     26.4      7.6      0.0
 2015 029   121   112      0.2      7.0      1.1     61.8     10.0       19     30.9    315.8     59.8     59.8    347.1     68.0   1588.9    11560     2169    425.2     68.0    425.2   9930.8       86   2519.9     31.3      8.3      8.3
 2015 030   122   113      0.2      6.5      1.0     62.4     10.0       19     30.7    289.8     38.4      0.0    317.2      0.0   1588.9    11880     1983    270.7     43.3      0.0   9930.8       87   2530.9     27.4      4.9      0.0
 2015 031   123   114      0.2      7.2      1.2     62.9     10.0       19     31.8    333.1     66.2      0.0    366.1      0.0   1588.9    12250     2288    466.3     74.6      0.0   9930.8       89   2833.0     33.0      8.4      0.0
 2015 032   124   115      0.2      7.9      1.3     63.6     10.0       19     34.6    394.7    139.9      0.0    435.8      0.0   1588.9    12690     2724    987.5    158.0      0.0   9930.8       93   3150.4     41.0     18.1      0.0
 2015 033   125   116      0.2      8.7      1.4     64.4     10.0       20     36.6    462.0    206.7    206.7    512.5    234.1   1823.0    13200     3203   1462.8    234.1   1462.8  11393.6       99   3426.5     50.5     27.4     27.4
 2015 034   126   117      0.2      6.1      1.0     64.8     10.0       20     32.0    285.7      0.0      0.0    312.8      0.0   1823.0    13510     1955      0.0      0.0      0.0  11393.6       99   2728.5     27.1      0.0      0.0
 2015 035   127   118      0.2      7.2      1.1     65.6     10.0       20     34.3    358.1     94.6      0.0    394.2      0.0   1823.0    13900     2464    670.2    107.2      0.0  11393.6      102   3217.9     36.0     12.6      0.0
 2015 036   128   119      0.2      7.9      1.3     66.4     10.0       21     35.9    409.3    146.0    146.0    455.2    165.7   1988.7    14360     2845   1035.6    165.7   1035.6  12429.1      106   3374.5     45.9     19.6     19.6
 2015 037   129   120      0.2      6.2      1.0     67.0     10.0       21     34.5    308.9     58.4      0.0    340.8      0.0   1988.7    14700     2130    413.7     66.2      0.0  12429.1      108   2952.9     31.9      7.8      0.0
 2015 038   130   121      0.2      6.7      1.1     67.7     10.0       21     37.7    365.1     63.5      0.0    404.1      0.0   1988.7    15100     2526    451.1     72.2      0.0  12429.1      110   3251.8     39.0      8.7      0.0
 2015 039   131   122      0.2      7.5      1.2     68.3     10.0       21     40.6    436.3    131.6      0.0    484.0      0.0   1988.7    15580     3025    931.4    149.0      0.0  12429.1      114   3796.6     47.7     17.5      0.0
 2015 040   132   123      0.2      8.1      1.3     69.2     10.0       22     41.6    476.2    193.0    193.0    536.7    220.2   2208.9    16120     3355   1376.4    220.2   1376.4  13805.5      119   4550.2     60.5     27.2     27.2
 2015 041   133   124      0.2      6.0      1.0     69.8     10.0       22     39.4    337.4    102.6      0.0    378.1      0.0   2208.9    16500     2363    724.4    115.9      0.0  13805.5      122   3559.5     40.8     13.3      0.0
 2015 042   134   125      0.2      6.6      1.1     70.4     10.0       22     42.2    397.0    110.2      0.0    445.2      0.0   2208.9    16950     2783    779.6    124.7      0.0  13805.5      125   4071.4     48.2     14.5      0.0
 2015 043   135   126      0.2      7.3      1.2     70.8     10.0       23     43.5    449.8    180.3    180.3    505.2    204.4   2413.3    17460     3157   1277.7    204.4   1277.7  15083.2      130   4325.5     55.4     24.1     24.1
 2015 044   136   127      0.2      5.2      0.8     71.2     10.0       23     39.6    296.6     23.7      0.0    331.5      0.0   2413.3    17790     2072    168.3     26.9      0.0  15083.2      131   3357.1     34.9      3.2      0.0
 2015 045   137   128      0.2      5.7      0.9     71.5     10.0       23     40.4    330.3     75.2      0.0    369.6      0.0   2413.3    18160     2310    537.1     85.9      0.0  15083.2      134   3777.8     39.3     10.8      0.0
 2015 046   138   129      0.2      6.5      1.0     72.1     10.0       23     42.3    393.6    101.9      0.0    441.3      0.0   2413.3    18600     2758    731.4    117.0      0.0  15083.2      137   4217.4     47.7     15.2      0.0
 2015 047   139   130      0.2      7.5      1.2     72.8     10.0       24     44.8    481.4    162.6    162.6    540.9    187.1   2600.4    19140     3381   1169.6    187.1   1169.6  16252.8      142   4664.2     59.5     24.6     24.6
 2015 048   140   131      0.2      6.9      1.1     73.6     10.0       24     42.1    419.3    119.9      0.0    467.5      0.0   2600.4    19610     2922    861.8    137.9      0.0  16252.8      147   3881.1     48.2     18.0      0.0
 2015 049   141   132      0.2      7.3      1.2     74.1     10.0       24     44.3    462.8    127.9      0.0    517.0      0.0   2600.4    20130     3232    919.8    147.2      0.0  16252.8      152   4275.4     54.3     19.3      0.0
 2015 050   142   133      0.2      7.4      1.2     74.3     10.0       25     44.7    473.2    129.6    129.6    529.0    149.1   2749.6    20660     3306    932.2    149.1    932.2  17185.0      157   4275.4     55.7     19.6     19.6
 2015 051   143   134      0.2      6.1      1.0     74.5     10.0       25     41.5    368.3     55.2      0.0    407.4      0.0   2749.6    21070     2546    395.1     63.2      0.0  17185.0      159   3431.8     39.1      8.0      0.0
 2015 052   144   135      0.2      6.9      1.1     75.0     10.0       25     42.5    422.1    111.7      0.0    468.2      0.0   2749.6    21540     2926    800.5    128.1      0.0  17185.0      163   3790.1     46.1     16.4      0.0
 2015 053   145   136      0.2      8.3      1.3     75.9     10.0       25     44.4    528.9    208.4      0.0    589.0      0.0   2749.6    22130     3681   1490.5    238.5      0.0  17185.0      170   4353.0     60.1     30.1      0.0
 2015 054   146   137      0.2      9.6      1.5     76.7     10.0       26     47.2    647.0    272.1    272.1    724.3    313.2   3062.8    22850     4527   1957.4    313.2   1957.4  19142.3      178   4730.6     77.3     41.1     41.1
 2015 055   147   138      0.2      8.0      1.3     77.7     10.0       26     41.4    481.3    149.3      0.0    530.9      0.0   3062.8    23380     3318   1062.9    170.1      0.0  19142.3      183   3671.4     49.6     20.7      0.0
 2015 056   148   139      0.2      9.3      1.5     78.6     10.0       26     41.7    559.2    251.0      0.0    623.6      0.0   3062.8    24000     3898   1788.3    286.1      0.0  19142.3      190   4546.4     64.5     35.1      0.0
 2015 057   149   140      0.2     10.2      1.6     79.5     10.0       27     43.6    628.4    310.1    310.1    709.5    355.1   3417.9    24710     4434   2219.4    355.1   2219.4  21361.7      198   5166.5     81.1     45.0     45.0
 2015 058   150   141      0.2      7.1      1.1     80.2     10.0       27     37.1    376.7     72.8      0.0    421.5      0.0   3417.9    25130     2634    517.7     82.8      0.0  21361.7      200   4267.6     44.7     10.1      0.0
 2015 059   151   142      0.2      7.6      1.2     81.1     10.0       27     36.7    390.7    182.7      0.0    449.3      0.0   3417.9    25580     2808   1297.0    207.5      0.0  21361.7      205   4729.4     58.6     24.9      0.0
 2015 060   152   143      0.2     10.0      1.6     82.0     10.0       27     35.5    496.7    262.6      0.0    566.3      0.0   3417.9    26150     3539   1880.9    300.9      0.0  21361.7      212   4729.4     69.6     38.4      0.0
 2015 061   153   144      0.2     11.4      1.8     82.8     10.0       28     38.3    612.4    346.0    346.0    701.6    399.8   3817.7    26850     4385   2498.8    399.8   2498.8  23860.5      221   4729.4     89.2     53.8     53.8
 2015 062   154   145      0.2      8.0      1.3     83.6     10.0       28     31.9    360.3     77.9      0.0    408.0      0.0   3817.7    27260     2550    562.6     90.0      0.0  23860.5      223   3438.6     47.7     12.1      0.0
 2015 063   155   146      0.2      9.7      1.5     84.4     10.0       28     34.2    467.5    209.1      0.0    528.8      0.0   3817.7    27790     3305   1509.9    241.6      0.0  23860.5      230   4091.6     61.3     32.5      0.0
 2015 064   156   147      0.2     11.1      1.8     85.3     10.0       29     36.7    571.6    327.4    327.4    649.8    380.1   4197.8    28440     4061   2375.5    380.1   2375.5  26236.0      241   4091.6     78.2     52.6     52.6
 2015 065   157   148      0.2      7.6      1.2     86.1     10.0       29     27.9    307.9     98.8      0.0    341.6      0.0   4197.8    28780     2135    705.0    112.8      0.0  26236.0      244   2263.7     33.7     14.0      0.0
 2015 066   158   149      0.2      8.3      1.3     86.9     10.0       29     30.8    369.4    187.4      0.0    410.5      0.0   4197.8    29190     2566   1341.5    214.6      0.0  26236.0      250   2621.9     41.1     27.3      0.0
 2015 067   159   150      0.2      9.4      1.5     87.8     10.0       29     34.1    463.4    213.0      0.0    514.7      0.0   4197.8    29700     3217   1527.7    244.4      0.0  26236.0      256   3054.5     51.3     31.4      0.0
 2015 068   160   151      0.2     10.4      1.7     88.6     10.0       30     36.9    553.5    301.1    301.1    616.7    346.0   4543.8    30320     3854   2162.7    346.0   2162.7  28398.7      264   3529.3     63.2     44.9     44.9
 2015 069   161   152      0.2      7.0      1.1     89.4     10.0       30     31.2    323.9      0.0      0.0    350.5      0.0   4543.8    30670     2190      0.0      0.0      0.0  28398.7      264   2509.2     26.6      0.0      0.0
 2015 070   162   153      0.2      8.4      1.3     90.2     10.0       30     32.9    406.4     72.7      0.0    442.9      0.0   4543.8    31110     2768    516.1     82.6      0.0  28398.7      266   2876.5     36.5      9.9      0.0
 2015 071   163   154      0.2      9.8      1.6     90.9     10.0       31     34.9    498.1    145.2    145.2    546.3    165.5   4709.3    31660     3415   1034.4    165.5   1034.4  29433.0      270   3163.2     48.3     20.3     20.3
 2015 072   164   155      0.2      8.9      1.4     91.7     10.0       31     33.4    438.0     26.4      0.0    476.3      0.0   4709.3    32140     2977    186.6     29.9      0.0  29433.0      271   2968.1     38.3      3.5      0.0
 2015 073   165   156      0.2     10.4      1.7     92.5     10.0       31     35.0    531.8    105.7      0.0    582.2      0.0   4709.3    32720     3638    748.5    119.8      0.0  29433.0      274   3448.1     50.4     14.1      0.0
 2015 074   166   157      0.2     11.7      1.9     93.3     10.0       31     37.2    634.1    210.5      0.0    698.7      0.0   4709.3    33420     4367   1492.6    238.8      0.0  29433.0      279   3878.0     64.6     28.3      0.0
 2015 075   167   158      0.2     12.9      2.1     94.1     10.0       32     39.5    733.1    334.8    334.8    813.1    380.2   5089.5    34230     5082   2376.4    380.2   2376.4  31809.5      287   4241.6     80.0     45.4     45.4
 2015 076   168   159      0.2      9.6      1.5     95.0     10.0       32     34.9    487.6    111.9      0.0    533.8      0.0   5089.5    34760     3336    781.7    125.1      0.0  31809.5      290   3142.6     46.2     13.2      0.0
 2015 077   169   160      0.2     10.8      1.7     95.8     10.0       32     37.1    584.9    205.0      0.0    643.8      0.0   5089.5    35400     4024   1440.8    230.5      0.0  31809.5      294   3480.2     58.9     25.5      0.0
 2015 078   170   161      0.2     12.0      1.9     96.6     10.0       33     39.3    681.8    278.0    278.0    755.0    315.1   5404.6    36150     4718   1969.1    315.1   1969.1  33778.6      300   3876.0     73.2     37.1     37.1
 2015 079   171   162      0.2      9.4      1.5     97.4     10.0       33     36.0    493.4    102.8      0.0    540.8      0.0   5404.6    36690     3380    724.1    115.9      0.0  33778.6      302   3139.0     47.4     13.0      0.0
 2015 080   172   163      0.2     10.6      1.7     98.3     10.0       33     38.4    591.2    221.3      0.0    651.0      0.0   5404.6    37340     4069   1560.8    249.7      0.0  33778.6      307   3587.5     59.8     28.4      0.0
 2015 081   173   164      0.2     11.7      1.9     99.1     10.0       33     40.8    690.2    328.9      0.0    764.4      0.0   5404.6    38100     4778   2333.0    373.3      0.0  33778.6      314   4027.6     74.2     44.4      0.0
 2015 082   174   165      0.2     13.0      2.1    100.0     10.0       34     41.7    773.8    420.9    420.9    865.0    481.4   5886.0    38970     5406   3008.7    481.4   3008.7  36787.3      323   4955.0     91.2     60.5     60.5
 2015 083   175   166      0.2      9.0      1.4    100.8     10.0       34     34.8    456.3     66.4      0.0    500.5      0.0   5886.0    39470     3128    467.6     74.8      0.0  36787.3      325   3658.7     44.2      8.4      0.0
 2015 084   176   167      0.2     10.6      1.7    101.7     10.0       34     37.1    570.6    150.0      0.0    629.7      0.0   5886.0    40100     3936   1058.0    169.3      0.0  36787.3      328   4161.9     59.1     19.3      0.0
 2015 085   177   168      0.2     12.2      1.9    102.5     10.0       35     39.1    685.9    247.3    247.3    761.7    280.5   6166.4    40860     4761   1753.0    280.5   1753.0  38540.3      334   4629.9     75.8     33.1     33.1
 2015 086   178   169      0.2     10.4      1.7    103.4     10.0       35     35.0    523.2    175.6      0.0    580.5      0.0   6166.4    41440     3628   1234.3    197.5      0.0  38540.3      338   4079.4     57.4     21.9      0.0
 2015 087   179   170      0.2     10.6      1.7    104.1     10.0       35     39.1    597.7    189.0      0.0    665.9      0.0   6166.4    42110     4162   1331.7    213.1      0.0  38540.3      342   4079.4     68.2     24.1      0.0

*DSSAT Cropping System Model Ver. 4.8.5.017 pre-release  JUN 28, 2025 04:27:19

*RUN   2        : Sensation                 CRGRO048 UFWM1401    2
 MODEL          : CRGRO048 - Strawberry
 EXPERIMENT     : UFWM1401 SR 2014 WIMAUMA STRAWBERRY GROWTH AND YIELD ANALYSIS
 DATA PATH      :
 TREATMENT  2   : Sensation                 CRGRO048
  
@YEAR DOY   DAS   DAP    PDMCD    AFPWD    ADPWD    PAGED    XMAGE    CHNUM    TOSHN    TOWSH    MTDSH    HSHEL    TOPOW    HPODW    CHPDT    CPODN    TOFPW    MTFPW    MTDPW    HFPOW    CHFPW    CMFNM    TOSDN    TOWSD    MTDSD    HSDWT
 2014 314    41    32      0.0      0.0      0.0      0.0     10.0        0      0.2      0.0      0.0      0.0      0.0      0.0      0.0        0        0      0.0      0.0      0.0      0.0        0      0.0      0.0      0.0      0.0
 2014 315    42    33      0.2      0.2      0.0      0.9     10.0        0      0.6      0.2      0.0      0.0      0.2      0.0      0.0        0        1      0.0      0.0      0.0      0.0        0      0.0      0.0      0.0      0.0
 2014 316    43    34      0.2      0.8      0.1      1.6     10.0        0      1.1      1.4      0.0      0.0      1.4      0.0      0.0        0        9      0.0      0.0      0.0      0.0        0     34.6      0.0      0.0      0.0
 2014 317    44    35      0.2      1.3      0.2      2.3     10.0        0      1.5      2.9      0.0      0.0      3.0      0.0      0.0        0       18      0.0      0.0      0.0      0.0        0     34.6      0.1      0.0      0.0
 2014 318    45    36      0.2      2.2      0.3      3.0     10.0        0      1.8      6.0      0.0      0.0      6.1      0.0      0.0       10       38      0.0      0.0      0.0      0.0        0    103.8      0.2      0.0      0.0
 2014 319    46    37      0.2      3.1      0.5      3.7     10.0        0      2.1     10.1      0.0      0.0     10.6      0.0      0.0       20       66      0.0      0.0      0.0      0.0        0    175.7      0.4      0.0      0.0
 2014 320    47    38      0.2      4.9      0.8      4.6     10.0        0      2.5     18.8      0.0      0.0     19.8      0.0      0.0       40      124      0.0      0.0      0.0      0.0        0    292.1      1.0      0.0      0.0
 2014 321    48    39      0.2      6.9      1.1      5.4     10.0        0      2.7     28.0      0.0      0.0     30.1      0.0      0.0       70      188      0.0      0.0      0.0      0.0        0    351.7      2.1      0.0      0.0
 2014 322    49    40      0.2      7.8      1.2      6.0     10.0        0      2.9     33.6      0.0      0.0     36.2      0.0      0.0      110      226      0.0      0.0      0.0      0.0        0    351.7      2.6      0.0      0.0
 2014 323    50    41      0.2      8.6      1.4      6.3     10.0        0      2.9     37.4      0.0      0.0     40.4      0.0      0.0      150      253      0.0      0.0      0.0      0.0        0    408.9      3.0      0.0      0.0
 2014 324    51    42      0.2      9.7      1.6      6.8     10.0        0      3.0     43.3      0.0      0.0     46.9      0.0      0.0      200      293      0.0      0.0      0.0      0.0        0    408.9      3.7      0.0      0.0
 2014 325    52    43      0.2     10.6      1.7      7.6     10.0        0      3.5     54.8      0.0      0.0     59.6      0.0      0.0      260      373      0.0      0.0      0.0      0.0        0    465.4      4.8      0.0      0.0
 2014 326    53    44      0.2     12.1      1.9      8.5     10.0        0      3.8     66.8      0.0      0.0     73.3      0.0      0.0      330      458      0.0      0.0      0.0      0.0        0    509.3      6.5      0.0      0.0
 2014 327    54    45      0.2     14.4      2.3      9.3     10.0        0      3.9     82.5      0.0      0.0     90.9      0.0      0.0      420      568      0.0      0.0      0.0      0.0        0    604.6      8.3      0.0      0.0
 2014 328    55    46      0.2     16.8      2.7     10.1     10.0        1      4.0     97.8      7.4      7.4    108.4      8.6      8.6      530      677     53.5      8.6     53.5     53.5        0    645.5     10.6      1.1      1.1
 2014 329    56    47      0.2     17.1      2.7     10.9     10.0        1      4.0     98.1     14.2      0.0    109.8      0.0      8.6      640      686    102.2     16.3      0.0     53.5        0    646.6     11.7      2.2      0.0
 2014 330    57    48      0.2     17.6      2.8     11.6     10.0        1      4.3    106.2     14.1      0.0    119.4      0.0      8.6      760      746    102.9     16.5      0.0     53.5        0    673.0     13.2      2.3      0.0
 2014 331    58    49      0.2     17.8      2.8     12.1     10.0        1      4.4    111.9     29.4      0.0    126.2      0.0      8.6      890      789    213.8     34.2      0.0     53.5        1    673.0     14.4      4.8      0.0
 2014 332    59    50      0.2     18.5      3.0     12.5     10.0        1      4.4    115.6     42.8      0.0    130.8      0.0      8.6     1020      817    310.2     49.6      0.0     53.5        2    703.9     15.2      6.8      0.0
 2014 333    60    51      0.2     19.5      3.1     13.1     10.0        1      4.4    121.7     56.8      0.0    138.2      0.0      8.6     1160      864    411.9     65.9      0.0     53.5        3    733.8     16.5      9.1      0.0
 2014 334    61    52      0.2     19.9      3.2     13.9     10.0        1      4.7    130.5     69.5      0.0    149.2      0.0      8.6     1310      932    508.0     81.3      0.0     53.5        5    758.0     18.7     11.7      0.0
 2014 335    62    53      0.2     19.8      3.2     14.8     10.0        2      5.1    139.8     82.0     82.0    161.0     96.7    105.2     1470     1006    604.1     96.7    604.1    657.6        7    785.2     21.2     14.7     14.7
 2014 336    63    54      0.2     13.7      2.2     15.7     10.0        2      3.4     66.3      7.2      0.0     74.4      0.0    105.2     1540      465     52.6      8.4      0.0    657.6        7    462.2      8.1      1.2      0.0
 2014 337    64    55      0.2     14.6      2.3     16.6     10.0        2      3.7     77.0     16.8      0.0     86.7      0.0    105.2     1630      542    123.1     19.7      0.0    657.6        7    528.0      9.7      2.9      0.0
 2014 338    65    56      0.2     15.2      2.4     17.5     10.0        3      4.1     87.1     19.0     19.0     98.7     22.7    127.9     1730      617    142.0     22.7    142.0    799.6        8    593.6     11.6      3.7      3.7
 2014 339    66    57      0.2     14.8      2.4     18.4     10.0        3      3.8     79.6     16.8      0.0     89.3      0.0    127.9     1820      558    125.8     20.1      0.0    799.6        9    553.5      9.7      3.4      0.0
 2014 340    67    58      0.2     15.5      2.5     19.3     10.0        3      4.2     91.9     25.3      0.0    103.7      0.0    127.9     1920      648    190.2     30.4      0.0    799.6       10    613.7     11.7      5.2      0.0
 2014 341    68    59      0.2     14.7      2.3     20.2     10.0        3      5.0    103.9     37.2      0.0    117.7      0.0    127.9     2040      735    280.8     44.9      0.0    799.6       11    660.0     13.8      7.7      0.0
 2014 342    69    60      0.2     14.7      2.4     21.1     10.0        4      5.6    115.8     43.7     43.7    131.4     52.8    180.7     2170      821    330.0     52.8    330.0   1129.6       12    745.4     15.6      9.1      9.1
 2014 343    70    61      0.2     11.3      1.8     21.8     10.0        4      5.0     83.1      6.9      0.0     90.6      0.0    180.7     2260      566     49.3      7.9      0.0   1129.6       12    665.4      7.5      1.0      0.0
 2014 344    71    62      0.2     11.3      1.8     22.2     10.0        4      5.5     89.8     12.8      0.0     98.2      0.0    180.7     2360      614     91.0     14.6      0.0   1129.6       12    665.4      8.4      1.8      0.0
 2014 345    72    63      0.2     12.6      2.0     22.6     10.0        5      5.3     96.8     14.8     14.8    106.0     16.9    197.6     2470      663    105.6     16.9    105.6   1235.3       12    734.4      9.3      2.1      2.1
 2014 346    73    64      0.2     11.0      1.8     23.0     10.0        5      5.3     86.5      0.0      0.0     94.3      0.0    197.6     2560      589      0.0      0.0      0.0   1235.3       12    671.1      7.8      0.0      0.0
 2014 347    74    65      0.2     12.9      2.1     23.4     10.0        5      5.0     94.6      4.4      0.0    103.4      0.0    197.6     2660      646     30.8      4.9      0.0   1235.3       12    741.2      8.8      0.6      0.0
 2014 348    75    66      0.2     13.4      2.2     23.9     10.0        5      5.2    102.4      4.4      0.0    112.4      0.0    197.6     2770      702     31.0      5.0      0.0   1235.3       12    785.5     10.0      0.6      0.0
 2014 349    76    67      0.2     14.3      2.3     24.3     10.0        6      5.3    110.7     16.3     16.3    121.9     18.5    216.1     2890      762    115.6     18.5    115.6   1350.9       12    785.5     11.2      2.2      2.2
 2014 350    77    68      0.2     13.2      2.1     24.9     10.0        6      5.4    103.7     14.8      0.0    114.0      0.0    216.1     3000      712    104.4     16.7      0.0   1350.9       12    761.7     10.3      1.9      0.0
 2014 351    78    69      0.2     14.0      2.2     25.6     10.0        6      5.7    116.6     14.7      0.0    128.7      0.0    216.1     3130      804    105.1     16.8      0.0   1350.9       12    812.7     12.1      2.1      0.0
 2014 352    79    70      0.2     14.0      2.2     26.1     10.0        7      6.2    125.1     28.8     28.8    138.6     32.9    249.1     3270      866    205.7     32.9    205.7   1556.6       13    827.6     13.4      4.1      4.1
 2014 353    80    71      0.2     12.3      2.0     26.7     10.0        7      6.1    108.7     12.7      0.0    119.6      0.0    249.1     3390      747     90.2     14.4      0.0   1556.6       13    780.7     10.9      1.7      0.0
 2014 354    81    72      0.2     13.1      2.1     27.5     10.0        7      6.6    125.1     12.7      0.0    138.3      0.0    249.1     3530      864     91.2     14.6      0.0   1556.6       13    850.6     13.2      1.9      0.0
 2014 355    82    73      0.2     14.1      2.3     28.4     10.0        8      7.1    144.6     25.6     25.6    160.7     29.6    278.6     3690     1004    185.0     29.6    185.0   1741.6       14   1047.9     16.1      4.0      4.0
 2014 356    83    74      0.2     12.9      2.1     29.3     10.0        8      7.6    141.3      9.2      0.0    156.9      0.0    278.6     3850      981     66.6     10.7      0.0   1741.6       14   1024.8     15.6      1.5      0.0
 2014 357    84    75      0.2     13.2      2.1     30.1     10.0        8      8.8    165.2     25.2      0.0    184.6      0.0    278.6     4030     1154    185.2     29.6      0.0   1741.6       15   1124.8     19.4      4.4      0.0
 2014 358    85    76      0.2     14.0      2.2     30.9     10.0        9      9.7    193.3     53.3     53.3    216.9     63.2    341.8     4250     1355    394.9     63.2    394.9   2136.5       17   1305.9     23.6      9.9      9.9
 2014 359    86    77      0.2     11.7      1.9     31.7     10.0        9      9.6    163.6     13.0      0.0    179.9      0.0    341.8     4430     1125     96.0     15.4      0.0   2136.5       17   1234.3     16.4      2.3      0.0
 2014 360    87    78      0.2     11.7      1.9     32.5     10.0        9     11.2    191.1     37.0      0.0    210.7      0.0    341.8     4640     1317    271.1     43.4      0.0   2136.5       18   1432.8     19.6      6.4      0.0
 2014 361    88    79      0.2     12.6      2.0     33.4     10.0        9     12.9    234.3     47.3      0.0    259.1      0.0    341.8     4900     1620    348.9     55.8      0.0   2136.5       19   1699.4     24.9      8.5      0.0
 2014 362    89    80      0.2     13.2      2.1     34.3     10.0        9     14.7    279.5     59.0      0.0    310.3      0.0    341.8     5210     1940    437.9     70.1      0.0   2136.5       21   1956.3     30.8     11.0      0.0
 2014 363    90    81      0.2     13.9      2.2     35.2     10.0       10     16.5    329.1     80.8     80.8    366.8     96.2    438.0     5580     2292    601.1     96.2    601.1   2737.5       23   2236.4     37.6     15.4     15.4
 2014 364    91    82      0.2     12.2      2.0     36.2     10.0       10     15.2    267.4     32.0      0.0    296.3      0.0    438.0     5880     1852    228.9     36.6      0.0   2737.5       24   2198.8     28.9      4.7      0.0
 2014 365    92    83      0.2     14.4      2.3     37.2     10.0       10     14.1    289.4     61.1      0.0    325.0      0.0    438.0     6200     2031    440.3     70.4      0.0   2737.5       25   2198.8     35.5      9.3      0.0
 2015 001    93    84      0.2     14.9      2.4     38.1     10.0       10     15.9    337.6     84.2      0.0    379.1      0.0    438.0     6580     2369    610.4     97.7      0.0   2737.5       27   2357.7     41.5     13.5      0.0
 2015 002    94    85      0.2     15.8      2.5     39.0     10.0       11     17.5    391.8    107.7    107.7    441.9    125.8    563.8     7020     2762    786.4    125.8    786.4   3524.0       30   2523.0     50.1     18.2     18.2
 2015 003    95    86      0.2     14.5      2.3     39.8     10.0       11     16.4    340.9     42.3      0.0    380.5      0.0    563.8     7400     2378    302.6     48.4      0.0   3524.0       31   2314.2     39.6      6.1      0.0
 2015 004    96    87      0.2     15.7      2.5     40.6     10.0       11     17.7    396.2     90.5      0.0    444.3      0.0    563.8     7840     2777    653.0    104.5      0.0   3524.0       33   2551.8     48.1     14.0      0.0
 2015 005    97    88      0.2     15.6      2.5     41.5     10.0       12     19.8    437.9    136.0    136.0    494.4    158.3    722.1     8330     3090    989.1    158.3    989.1   4513.1       36   2831.7     56.5     22.3     22.3
 2015 006    98    89      0.2     12.9      2.1     42.3     10.0       12     18.9    350.1     55.6      0.0    391.4      0.0    722.1     8720     2446    405.2     64.8      0.0   4513.1       37   2529.6     41.3      9.3      0.0
 2015 007    99    90      0.2     12.8      2.1     42.9     10.0       12     20.5    375.1    104.3      0.0    421.1      0.0    722.1     9140     2632    766.3    122.6      0.0   4513.1       40   2529.6     46.0     18.3      0.0
 2015 008   100    91      0.2     13.5      2.2     43.3     10.0       13     20.2    390.0    104.2    104.2    438.6    123.0    845.1     9580     2741    768.5    123.0    768.5   5281.6       43   2825.8     48.6     18.8     18.8
 2015 009   101    92      0.2     12.0      1.9     43.8     10.0       13     17.7    306.4     44.7      0.0    339.3      0.0    845.1     9920     2120    333.4     53.3      0.0   5281.6       45   2302.2     32.9      8.6      0.0
 2015 010   102    93      0.2     13.5      2.2     44.3     10.0       13     17.1    331.4     44.6      0.0    367.7      0.0    845.1    10290     2298    335.5     53.7      0.0   5281.6       47   2588.0     36.3      9.1      0.0
 2015 011   103    94      0.2     15.4      2.5     45.0     10.0       13     17.4    383.7    107.8      0.0    427.7      0.0    845.1    10720     2673    794.4    127.1      0.0   5281.6       50   2830.4     44.0     19.3      0.0
 2015 012   104    95      0.2     15.8      2.5     45.9     10.0       14     18.8    421.3    107.4    107.4    475.7    129.0    974.1    11200     2973    806.4    129.0    806.4   6088.1       53   2939.5     54.3     21.6     21.6
 2015 013   105    96      0.2     14.5      2.3     46.9     10.0       14     17.8    372.6     34.7      0.0    413.2      0.0    974.1    11610     2582    250.2     40.0      0.0   6088.1       54   2477.8     40.6      5.3      0.0
 2015 014   106    97      0.2     14.8      2.4     47.8     10.0       14     19.6    415.2     71.7      0.0    463.7      0.0    974.1    12070     2898    518.4     82.9      0.0   6088.1       56   2743.5     48.5     11.2      0.0
 2015 015   107    98      0.2     17.0      2.7     48.5     10.0       15     18.2    442.9    130.7    130.7    497.2    150.7   1124.8    12570     3107    941.8    150.7    941.8   7029.8       59   2743.5     54.3     19.9     19.9
 2015 016   108    99      0.2     13.2      2.1     49.2     10.0       15     17.9    339.0     54.5      0.0    378.0      0.0   1124.8    12950     2362    384.8     61.6      0.0   7029.8       60   2163.5     38.9      7.1      0.0
 2015 017   109   100      0.2     12.4      2.0     49.8     10.0       15     20.5    364.6    117.5      0.0    408.0      0.0   1124.8    13360     2550    831.3    133.0      0.0   7029.8       63   2441.0     43.3     15.5      0.0
 2015 018   110   101      0.2     11.7      1.9     50.6     10.0       15     24.0    398.0    117.2      0.0    448.0      0.0   1124.8    13810     2800    838.3    134.1      0.0   7029.8       66   2624.7     50.0     17.0      0.0
 2015 019   111   102      0.2     11.4      1.8     51.2     10.0       16     26.4    424.9    178.5    178.5    480.0    205.1   1329.8    14290     3000   1281.7    205.1   1281.7   8311.5       70   3032.3     55.1     26.6     26.6
 2015 020   112   103      0.2      8.4      1.4     51.8     10.0       16     23.5    284.5     52.8      0.0    317.8      0.0   1329.8    14610     1986    384.1     61.5      0.0   8311.5       72   2668.0     33.3      8.7      0.0
 2015 021   113   104      0.2      9.1      1.5     52.6     10.0       16     26.4    344.9     97.8      0.0    385.9      0.0   1329.8    15000     2412    723.3    115.7      0.0   8311.5       75   3200.6     41.0     17.9      0.0
 2015 022   114   105      0.2     10.7      1.7     53.4     10.0       17     28.0    429.5    139.0    139.0    480.8    166.0   1495.9    15480     3005   1037.6    166.0   1037.6   9349.2       80   4003.0     51.4     27.0     27.0
 2015 023   115   106      0.2      9.8      1.6     54.3     10.0       17     26.0    373.7     19.3      0.0    409.7      0.0   1495.9    15890     2560    139.8     22.4      0.0   9349.2       81   3742.8     36.0      3.0      0.0
 2015 024   116   107      0.2     10.7      1.7     55.0     10.0       17     28.5    445.6     19.3      0.0    489.5      0.0   1495.9    16380     3059    141.1     22.6      0.0   9349.2       82   4102.7     44.0      3.3      0.0
 2015 025   117   108      0.2     11.4      1.8     55.5     10.0       17     29.7    490.2     47.8      0.0    539.8      0.0   1495.9    16920     3374    350.3     56.0      0.0   9349.2       83   4102.7     49.6      8.2      0.0
 2015 026   118   109      0.2     12.4      2.0     56.2     10.0       18     31.5    564.6     90.4     90.4    623.5    106.6   1602.5    17540     3897    666.4    106.6    666.4  10015.5       86   4534.2     58.8     16.2     16.2
 2015 027   119   110      0.2     11.7      1.9     56.6     10.0       18     30.5    524.2      0.0      0.0    572.5      0.0   1602.5    18110     3578      0.0      0.0      0.0  10015.5       86   4338.5     48.3      0.0      0.0
 2015 028   120   111      0.2     11.9      1.9     57.1     10.0       18     32.8    572.9      0.0      0.0    627.1      0.0   1602.5    18740     3920      0.0      0.0      0.0  10015.5       86   4478.0     54.2      0.0      0.0
 2015 029   121   112      0.2     12.7      2.0     57.6     10.0       19     34.1    630.2      0.0      0.0    692.1      0.0   1602.5    19430     4326      0.0      0.0      0.0  10015.5       86   4478.0     61.9      0.0      0.0
 2015 030   122   113      0.2     13.0      2.1     58.1     10.0       19     36.2    684.2     54.1      0.0    754.0      0.0   1602.5    20180     4712    387.7     62.0      0.0  10015.5       88   4741.9     69.8      8.0      0.0
 2015 031   123   114      0.2     13.7      2.2     58.7     10.0       19     37.8    751.5     93.0      0.0    830.4      0.0   1602.5    21010     5190    666.4    106.6      0.0  10015.5       91   5365.0     78.9     13.6      0.0
 2015 032   124   115      0.2     14.1      2.3     59.4     10.0       19     40.6    824.8    174.9      0.0    917.2      0.0   1602.5    21930     5732   1258.0    201.3      0.0  10015.5       96   5530.4     92.4     26.4      0.0
 2015 033   125   116      0.2     14.6      2.3     60.1     10.0       20     43.3    904.2    262.0    262.0   1011.1    303.4   1905.9    22940     6319   1896.4    303.4   1896.4  11911.9      103   5984.8    106.9     41.4     41.4
 2015 034   126   117      0.2     12.6      2.0     60.6     10.0       20     37.8    692.1      0.0      0.0    764.6      0.0   1905.9    23700     4778      0.0      0.0      0.0  11911.9      103   5183.9     72.4      0.0      0.0
 2015 035   127   118      0.2     13.3      2.1     61.4     10.0       20     41.1    789.5    201.1      0.0    876.9      0.0   1905.9    24580     5481   1438.9    230.2      0.0  11911.9      109   5632.2     87.4     29.1      0.0
 2015 036   128   119      0.2     13.8      2.2     62.1     10.0       21     42.6    836.8    268.5    268.5    939.4    310.2   2216.1    25520     5871   1938.5    310.2   1938.5  13850.5      116   6571.1    102.6     41.7     41.7
 2015 037   129   120      0.2     11.2      1.8     62.8     10.0       21     39.4    635.0    103.4      0.0    705.6      0.0   2216.1    26230     4410    742.6    118.8      0.0  13850.5      119   5236.1     70.6     15.4      0.0
 2015 038   130   121      0.2     11.5      1.8     63.4     10.0       21     43.3    714.1    103.2      0.0    795.8      0.0   2216.1    27030     4974    748.7    119.8      0.0  13850.5      122   5836.4     81.6     16.6      0.0
 2015 039   131   122      0.2     11.9      1.9     64.1     10.0       21     47.3    807.8    175.5      0.0    903.2      0.0   2216.1    27930     5645   1277.8    204.5      0.0  13850.5      127   6154.4     95.4     28.9      0.0
 2015 040   132   123      0.2     12.4      2.0     64.9     10.0       22     48.3    846.3    261.5    261.5    960.0    305.9   2522.0    28890     6000   1912.1    305.9   1912.1  15762.6      135   7523.1    113.7     44.5     44.5
 2015 041   133   124      0.2     10.4      1.7     65.5     10.0       22     44.8    665.1     95.4      0.0    745.1      0.0   2522.0    29640     4657    685.3    109.6      0.0  15762.6      138   6167.6     80.0     14.2      0.0
 2015 042   134   125      0.2     10.9      1.8     66.1     10.0       22     48.2    752.8     95.2      0.0    844.1      0.0   2522.0    30480     5276    689.7    110.4      0.0  15762.6      141   6830.6     91.4     15.1      0.0
 2015 043   135   126      0.2     11.4      1.8     66.6     10.0       23     50.8    823.4    147.6    147.6    925.3    171.0   2693.0    31410     5783   1068.9    171.0   1068.9  16831.4      145   7083.4    101.9     23.4     23.4
 2015 044   136   127      0.2     10.4      1.7     66.9     10.0       23     48.3    716.4     58.5      0.0    800.9      0.0   2693.0    32210     5005    420.4     67.3      0.0  16831.4      147   6340.8     84.5      8.8      0.0
 2015 045   137   128      0.2     11.0      1.8     67.3     10.0       23     48.6    767.2    121.9      0.0    859.1      0.0   2693.0    33070     5369    874.5    139.9      0.0  16831.4      150   6749.5     91.9     18.0      0.0
 2015 046   138   129      0.2     11.9      1.9     67.8     10.0       23     50.2    852.4    156.0      0.0    957.4      0.0   2693.0    34030     5984   1124.1    179.9      0.0  16831.4      154   7154.9    105.0     23.9      0.0
 2015 047   139   130      0.2     12.8      2.1     68.5     10.0       24     52.7    960.3    241.2    241.2   1082.9    279.8   2972.8    35110     6768   1748.8    279.8   1748.8  18580.3      161   7697.6    122.6     38.6     38.6
 2015 048   140   131      0.2     11.8      1.9     69.4     10.0       24     49.0    822.5    158.8      0.0    927.2      0.0   2972.8    36040     5795   1163.2    186.1      0.0  18580.3      166   7339.2    104.6     27.3      0.0
 2015 049   141   132      0.2     11.8      1.9     69.9     10.0       24     53.0    882.5    158.6      0.0    997.0      0.0   2972.8    37040     6231   1169.6    187.1      0.0  18580.3      171   7339.2    114.5     28.6      0.0
 2015 050   142   133      0.2     11.7      1.9     70.0     10.0       25     54.2    895.7    158.4    158.4   1012.4    187.2   3160.1    38050     6327   1170.3    187.2   1170.3  19750.6      176   7339.2    116.7     28.9     28.9
 2015 051   143   134      0.2     11.5      1.8     70.3     10.0       25     47.0    770.1     70.4      0.0    862.8      0.0   3160.1    38910     5392    523.0     83.7      0.0  19750.6      179   6809.0     92.6     13.2      0.0
 2015 052   144   135      0.2     11.9      1.9     70.8     10.0       25     50.3    851.5    141.5      0.0    956.3      0.0   3160.1    39870     5977   1050.0    168.0      0.0  19750.6      184   6809.0    104.8     26.5      0.0
 2015 053   145   136      0.2     13.5      2.2     71.6     10.0       25     50.5    960.7    243.4      0.0   1087.7      0.0   3160.1    40960     6798   1809.6    289.5      0.0  19750.6      193   7714.2    127.0     46.2      0.0
 2015 054   146   137      0.2     14.2      2.3     72.5     10.0       26     54.7   1086.8    296.6    296.6   1240.1    357.4   3517.5    42200     7751   2233.5    357.4   2233.5  21984.1      203   8231.3    153.3     60.7     60.7
 2015 055   147   138      0.2     14.4      2.3     73.4     10.0       26     44.2    903.0    233.0      0.0   1018.8      0.0   3517.5    43220     6367   1705.4    272.9      0.0  21984.1      211   6374.0    115.8     39.9      0.0
 2015 056   148   139      0.2     16.4      2.6     74.3     10.0       26     42.6    980.3    351.6      0.0   1118.6      0.0   3517.5    44340     6991   2598.9    415.8      0.0  21984.1      222   6374.0    138.3     64.3      0.0
 2015 057   149   140      0.2     18.3      2.9     75.2     10.0       27     41.2   1049.0    400.3    400.3   1206.1    478.9   3996.4    45550     7538   2993.3    478.9   2993.3  24977.4      235   6374.0    157.1     78.6     78.6
 2015 058   150   141      0.2     16.0      2.6     76.0     10.0       27     30.7    698.7     85.0      0.0    787.0      0.0   3996.4    46340     4919    611.7     97.9      0.0  24977.4      237   4610.9     88.3     12.8      0.0
 2015 059   151   142      0.2     16.0      2.6     76.9     10.0       27     31.8    714.1    224.8      0.0    816.1      0.0   3996.4    47160     5101   1642.0    262.7      0.0  24977.4      244   5117.7    102.0     37.9      0.0
 2015 060   152   143      0.2     16.6      2.6     77.7     10.0       27     34.3    790.9    320.2      0.0    909.6      0.0   3996.4    48070     5685   2365.2    378.4      0.0  24977.4      253   5476.0    118.7     58.2      0.0
 2015 061   153   144      0.2     16.6      2.7     78.5     10.0       28     37.5    858.1    425.0    425.0    996.9    508.4   4504.8    49070     6231   3177.4    508.4   3177.4  28154.8      265   5620.8    138.8     83.4     83.4
 2015 062   154   145      0.2     12.5      2.0     79.4     10.0       28     28.1    495.0     82.2      0.0    562.5      0.0   4504.8    49630     3516    607.5     97.2      0.0  28154.8      267   3779.6     67.5     15.0      0.0
 2015 063   155   146      0.2     13.1      2.1     80.2     10.0       28     31.1    570.5    254.0      0.0    651.1      0.0   4504.8    50280     4069   1877.7    300.4      0.0  28154.8      274   4254.7     80.6     46.4      0.0
 2015 064   156   147      0.2     14.1      2.3     81.0     10.0       29     33.7    665.8    319.7    319.7    761.9    386.5   4891.3    51040     4762   2415.7    386.5   2415.7  30570.5      284   4767.8     96.1     66.8     66.8
 2015 065   157   148      0.2     11.6      1.9     81.8     10.0       29     26.3    448.9      0.0      0.0    488.0      0.0   4891.3    51530     3050      0.0      0.0      0.0  30570.5      284   3457.1     39.1      0.0      0.0
 2015 066   158   149      0.2     12.3      2.0     82.7     10.0       29     30.0    539.7      0.0      0.0    588.8      0.0   4891.3    52120     3680      0.0      0.0      0.0  30570.5      284   4026.4     49.0      0.0      0.0
 2015 067   159   150      0.2     13.0      2.1     83.5     10.0       29     34.2    649.8      0.0      0.0    712.6      0.0   4891.3    52830     4453      0.0      0.0      0.0  30570.5      284   4623.6     62.8      0.0      0.0
 2015 068   160   151      0.2     14.8      2.4     84.4     10.0       30     35.9    769.0    106.9    106.9    847.7    124.0   5015.3    53680     5298    774.9    124.0    774.9  31345.4      287   5246.1     78.7     17.1     17.1
 2015 069   161   152      0.2     15.4      2.5     85.2     10.0       30     35.3    792.8      0.0      0.0    871.2      0.0   5015.3    54550     5445      0.0      0.0      0.0  31345.4      287   5335.8     78.4      0.0      0.0
 2015 070   162   153      0.2     17.5      2.8     85.9     10.0       30     35.6    900.8    107.6      0.0    997.9      0.0   5015.3    55550     6237    785.2    125.6      0.0  31345.4      290   5335.8     97.1     18.0      0.0
 2015 071   163   154      0.2     18.6      3.0     86.7     10.0       31     38.5   1028.0    192.2    192.2   1144.2    225.6   5240.9    56690     7151   1410.3    225.6   1410.3  32755.7      295   5335.8    116.2     33.5     33.5
 2015 072   164   155      0.2     18.8      3.0     87.4     10.0       31     35.2    956.9     34.9      0.0   1055.9      0.0   5240.9    57750     6600    252.9     40.5      0.0  32755.7      296   5192.1     99.0      5.5      0.0
 2015 073   165   156      0.2     20.0      3.2     88.2     10.0       31     37.5   1083.6    130.8      0.0   1201.1      0.0   5240.9    58950     7507    950.5    152.1      0.0  32755.7      299   5563.0    117.5     21.2      0.0
 2015 074   166   157      0.2     20.9      3.3     89.1     10.0       31     40.3   1207.4    244.0      0.0   1345.1      0.0   5240.9    60300     8407   1783.2    285.3      0.0  32755.7      305   6008.9    137.7     41.4      0.0
 2015 075   167   158      0.2     21.5      3.4     89.9     10.0       32     43.1   1322.2    382.2    382.2   1480.8    446.6   5687.5    61780     9255   2791.4    446.6   2791.4  35547.1      314   6435.7    158.7     64.4     64.4
 2015 076   168   159      0.2     19.3      3.1     90.7     10.0       32     37.8   1056.3    145.4      0.0   1168.2      0.0   5687.5    62950     7302   1037.7    166.0      0.0  35547.1      317   5417.4    111.9     20.6      0.0
 2015 077   169   160      0.2     20.2      3.2     91.5     10.0       32     40.2   1167.6    300.0      0.0   1298.7      0.0   5687.5    64250     8117   2154.5    344.7      0.0  35547.1      323   5902.7    131.1     44.7      0.0
 2015 078   170   161      0.2     21.1      3.4     92.3     10.0       33     42.3   1277.1    464.3    464.3   1429.6    536.3   6223.9    65680     8935   3352.1    536.3   3352.1  38899.1      332   6442.2    152.5     72.1     72.1
 2015 079   171   162      0.2     18.0      2.9     93.2     10.0       33     35.9    936.3    173.7      0.0   1033.7      0.0   6223.9    66710     6461   1238.4    198.1      0.0  38899.1      335   5186.1     97.4     24.5      0.0
 2015 080   172   163      0.2     18.9      3.0     94.0     10.0       33     38.8   1059.2    334.6      0.0   1174.6      0.0   6223.9    67880     7341   2407.4    385.2      0.0  38899.1      342   5646.7    115.4     50.6      0.0
 2015 081   173   164      0.2     21.4      3.4     94.8     10.0       33     38.4   1178.5    333.6      0.0   1313.9      0.0   6223.9    69190     8212   2428.4    388.5      0.0  38899.1      349   6183.0    135.4     55.0      0.0
 2015 082   174   165      0.2     23.4      3.7     95.7     10.0       34     37.8   1256.1    444.6    444.6   1414.5    518.7   6742.5    70600     8840   3241.7    518.7   3241.7  42140.9      358   6714.2    158.4     74.1     74.1
 2015 083   175   166      0.2     22.4      3.6     96.6     10.0       34     28.6    923.4     87.0      0.0   1025.2      0.0   6742.5    71630     6408    621.2     99.4      0.0  42140.9      360   5143.4    101.8     12.4      0.0
 2015 084   176   167      0.2     24.9      4.0     97.4     10.0       34     28.6   1017.9    177.1      0.0   1138.2      0.0   6742.5    72770     7114   1283.0    205.3      0.0  42140.9      364   5143.4    120.3     28.2      0.0
 2015 085   177   168      0.2     27.0      4.3     98.2     10.0       35     28.6   1094.9    287.8    287.8   1233.3    336.0   7078.5    74000     7708   2099.8    336.0   2099.8  44240.7      370   5143.4    138.4     48.2     48.2
 2015 086   178   169      0.2     27.3      4.4     99.1     10.0       35     22.3    868.6    237.0      0.0    973.2      0.0   7078.5    74970     6083   1701.9    272.3      0.0  44240.7      375   4011.6    104.6     35.3      0.0
 2015 087   179   170      0.2     28.4      4.5     99.8     10.0       35     22.3    899.7    236.6      0.0   1013.8      0.0   7078.5    75980     6336   1713.0    274.1      0.0  44240.7      380   4011.6    114.0     37.5      0.0
