*MANAGEMENT OPERATIONS DAILY OUTPUT FILE

*DSSAT Cropping System Model Ver. 4.8.5.017 pre-release  JUN 12, 2025 18:04:53

*RUN   1        : Radiance                  CRGRO048 UFBA1401    1
 MODEL          : CRGRO048 - Strawberry
 EXPERIMENT     : UFBA1401 SR 2014 BALM STRAWBERRY VARIETY TRIAL
 DATA PATH      :
 TREATMENT  1   : Radiance                  CRGRO048
  

@YEAR DOY   DAS   DAP  IR#C  IRRC  R#AC RESNC RESPC
 2014 274     1     0     0     0     0     0     0
 2014 275     2     0     0     0     0     0     0
 2014 276     3     0     0     0     0     0     0
 2014 277     4     0     0     0     0     0     0
 2014 278     5     0     0     0     0     0     0
 2014 279     6     0     0     0     0     0     0
 2014 280     7     0     0     0     0     0     0
 2014 281     8     0     0     0     0     0     0
 2014 282     9     0     0     0     0     0     0
 2014 283    10     1     0     0     0     0     0
 2014 284    11     2     0     0     0     0     0
 2014 285    12     3     0     0     0     0     0
 2014 286    13     4     0     0     0     0     0
 2014 287    14     5     0     0     0     0     0
 2014 288    15     6     0     0     0     0     0
 2014 289    16     7     0     0     0     0     0
 2014 290    17     8     0     0     0     0     0
 2014 291    18     9     0     0     0     0     0
 2014 292    19    10     0     0     0     0     0
 2014 293    20    11     0     0     0     0     0
 2014 294    21    12     0     0     0     0     0
 2014 295    22    13     0     0     0     0     0
 2014 296    23    14     0     0     0     0     0
 2014 297    24    15     0     0     0     0     0
 2014 298    25    16     0     0     0     0     0
 2014 299    26    17     0     0     0     0     0
 2014 300    27    18     0     0     0     0     0
 2014 301    28    19     0     0     0     0     0
 2014 302    29    20     0     0     0     0     0
 2014 303    30    21     0     0     0     0     0
 2014 304    31    22     0     0     0     0     0
 2014 305    32    23     0     0     0     0     0
 2014 306    33    24     0     0     0     0     0
 2014 307    34    25     0     0     0     0     0
 2014 308    35    26     0     0     0     0     0
 2014 309    36    27     0     0     0     0     0
 2014 310    37    28     0     0     0     0     0
 2014 311    38    29     0     0     0     0     0
 2014 312    39    30     0     0     0     0     0
 2014 313    40    31     0     0     0     0     0
 2014 314    41    32     0     0     0     0     0
 2014 315    42    33     0     0     0     0     0
 2014 316    43    34     0     0     0     0     0
 2014 317    44    35     0     0     0     0     0
 2014 318    45    36     0     0     0     0     0
 2014 319    46    37     0     0     0     0     0
 2014 320    47    38     0     0     0     0     0
 2014 321    48    39     0     0     0     0     0
 2014 322    49    40     0     0     0     0     0
 2014 323    50    41     0     0     0     0     0
 2014 324    51    42     0     0     0     0     0
 2014 325    52    43     0     0     0     0     0
 2014 326    53    44     0     0     0     0     0
 2014 327    54    45     0     0     0     0     0
 2014 328    55    46     0     0     0     0     0
 2014 329    56    47     0     0     0     0     0
 2014 330    57    48     0     0     0     0     0
 2014 331    58    49     0     0     0     0     0
 2014 332    59    50     0     0     0     0     0
 2014 333    60    51     0     0     0     0     0
 2014 334    61    52     0     0     0     0     0
 2014 335    62    53     0     0     0     0     0
 2014 336    63    54     0     0     0     0     0
 2014 337    64    55     0     0     0     0     0
 2014 338    65    56     0     0     0     0     0
 2014 339    66    57     0     0     0     0     0
 2014 340    67    58     0     0     0     0     0
 2014 341    68    59     0     0     0     0     0
 2014 342    69    60     0     0     0     0     0
 2014 343    70    61     0     0     0     0     0
 2014 344    71    62     0     0     0     0     0
 2014 345    72    63     0     0     0     0     0
 2014 346    73    64     0     0     0     0     0
 2014 347    74    65     0     0     0     0     0
 2014 348    75    66     0     0     0     0     0
 2014 349    76    67     0     0     0     0     0
 2014 350    77    68     0     0     0     0     0
 2014 351    78    69     0     0     0     0     0
 2014 352    79    70     0     0     0     0     0
 2014 353    80    71     0     0     0     0     0
 2014 354    81    72     0     0     0     0     0
 2014 355    82    73     0     0     0     0     0
 2014 356    83    74     0     0     0     0     0
 2014 357    84    75     0     0     0     0     0
 2014 358    85    76     0     0     0     0     0
 2014 359    86    77     0     0     0     0     0
 2014 360    87    78     0     0     0     0     0
 2014 361    88    79     0     0     0     0     0
 2014 362    89    80     0     0     0     0     0
 2014 363    90    81     0     0     0     0     0
 2014 364    91    82     0     0     0     0     0
 2014 365    92    83     0     0     0     0     0
 2015 001    93    84     0     0     0     0     0
