*MANAGEMENT OPERATIONS DAILY OUTPUT FILE

*DSSAT Cropping System Model Ver. 4.8.5.017 pre-release  JUN 28, 2025 04:27:17

*RUN   1        : Radiance                  CRGRO048 UFWM1401    1
 MODEL          : CRGRO048 - Strawberry
 EXPERIMENT     : UFWM1401 SR 2014 WIMAUMA STRAWBERRY GROWTH AND YIELD ANALYSIS
 DATA PATH      :
 TREATMENT  1   : Radiance                  CRGRO048
  

@YEAR DOY   DAS   DAP  IR#C  IRRC  R#AC RESNC RESPC
 2014 274     1     0     0     0     0     0     0
 2014 275     2     0     0     0     0     0     0
 2014 276     3     0     0     0     0     0     0
 2014 277     4     0     0     0     0     0     0
 2014 278     5     0     0     0     0     0     0
 2014 279     6     0     0     0     0     0     0
 2014 280     7     0     0     0     0     0     0
 2014 281     8     0     0     0     0     0     0
 2014 282     9     0     0     0     0     0     0
 2014 283    10     1     0     0     0     0     0
 2014 284    11     2     0     0     0     0     0
 2014 285    12     3     0     0     0     0     0
 2014 286    13     4     0     0     0     0     0
 2014 287    14     5     0     0     0     0     0
 2014 288    15     6     0     0     0     0     0
 2014 289    16     7     0     0     0     0     0
 2014 290    17     8     0     0     0     0     0
 2014 291    18     9     0     0     0     0     0
 2014 292    19    10     0     0     0     0     0
 2014 293    20    11     0     0     0     0     0
 2014 294    21    12     0     0     0     0     0
 2014 295    22    13     0     0     0     0     0
 2014 296    23    14     0     0     0     0     0
 2014 297    24    15     0     0     0     0     0
 2014 298    25    16     0     0     0     0     0
 2014 299    26    17     0     0     0     0     0
 2014 300    27    18     0     0     0     0     0
 2014 301    28    19     0     0     0     0     0
 2014 302    29    20     0     0     0     0     0
 2014 303    30    21     0     0     0     0     0
 2014 304    31    22     0     0     0     0     0
 2014 305    32    23     0     0     0     0     0
 2014 306    33    24     0     0     0     0     0
 2014 307    34    25     0     0     0     0     0
 2014 308    35    26     0     0     0     0     0
 2014 309    36    27     0     0     0     0     0
 2014 310    37    28     0     0     0     0     0
 2014 311    38    29     0     0     0     0     0
 2014 312    39    30     0     0     0     0     0
 2014 313    40    31     0     0     0     0     0
 2014 314    41    32     0     0     0     0     0
 2014 315    42    33     0     0     0     0     0
 2014 316    43    34     0     0     0     0     0
 2014 317    44    35     0     0     0     0     0
 2014 318    45    36     0     0     0     0     0
 2014 319    46    37     0     0     0     0     0
 2014 320    47    38     0     0     0     0     0
 2014 321    48    39     0     0     0     0     0
 2014 322    49    40     0     0     0     0     0
 2014 323    50    41     0     0     0     0     0
 2014 324    51    42     0     0     0     0     0
 2014 325    52    43     0     0     0     0     0
 2014 326    53    44     0     0     0     0     0
 2014 327    54    45     0     0     0     0     0
 2014 328    55    46     0     0     0     0     0
 2014 329    56    47     0     0     0     0     0
 2014 330    57    48     0     0     0     0     0
 2014 331    58    49     0     0     0     0     0
 2014 332    59    50     0     0     0     0     0
 2014 333    60    51     0     0     0     0     0
 2014 334    61    52     0     0     0     0     0
 2014 335    62    53     0     0     0     0     0
 2014 336    63    54     0     0     0     0     0
 2014 337    64    55     0     0     0     0     0
 2014 338    65    56     0     0     0     0     0
 2014 339    66    57     0     0     0     0     0
 2014 340    67    58     0     0     0     0     0
 2014 341    68    59     0     0     0     0     0
 2014 342    69    60     0     0     0     0     0
 2014 343    70    61     0     0     0     0     0
 2014 344    71    62     0     0     0     0     0
 2014 345    72    63     0     0     0     0     0
 2014 346    73    64     0     0     0     0     0
 2014 347    74    65     0     0     0     0     0
 2014 348    75    66     0     0     0     0     0
 2014 349    76    67     0     0     0     0     0
 2014 350    77    68     0     0     0     0     0
 2014 351    78    69     0     0     0     0     0
 2014 352    79    70     0     0     0     0     0
 2014 353    80    71     0     0     0     0     0
 2014 354    81    72     0     0     0     0     0
 2014 355    82    73     0     0     0     0     0
 2014 356    83    74     0     0     0     0     0
 2014 357    84    75     0     0     0     0     0
 2014 358    85    76     0     0     0     0     0
 2014 359    86    77     0     0     0     0     0
 2014 360    87    78     0     0     0     0     0
 2014 361    88    79     0     0     0     0     0
 2014 362    89    80     0     0     0     0     0
 2014 363    90    81     0     0     0     0     0
 2014 364    91    82     0     0     0     0     0
 2014 365    92    83     0     0     0     0     0
 2015 001    93    84     0     0     0     0     0
 2015 002    94    85     0     0     0     0     0
 2015 003    95    86     0     0     0     0     0
 2015 004    96    87     0     0     0     0     0
 2015 005    97    88     0     0     0     0     0
 2015 006    98    89     0     0     0     0     0
 2015 007    99    90     0     0     0     0     0
 2015 008   100    91     0     0     0     0     0
 2015 009   101    92     0     0     0     0     0
 2015 010   102    93     0     0     0     0     0
 2015 011   103    94     0     0     0     0     0
 2015 012   104    95     0     0     0     0     0
 2015 013   105    96     0     0     0     0     0
 2015 014   106    97     0     0     0     0     0
 2015 015   107    98     0     0     0     0     0
 2015 016   108    99     0     0     0     0     0
 2015 017   109   100     0     0     0     0     0
 2015 018   110   101     0     0     0     0     0
 2015 019   111   102     0     0     0     0     0
 2015 020   112   103     0     0     0     0     0
 2015 021   113   104     0     0     0     0     0
 2015 022   114   105     0     0     0     0     0
 2015 023   115   106     0     0     0     0     0
 2015 024   116   107     0     0     0     0     0
 2015 025   117   108     0     0     0     0     0
 2015 026   118   109     0     0     0     0     0
 2015 027   119   110     0     0     0     0     0
 2015 028   120   111     0     0     0     0     0
 2015 029   121   112     0     0     0     0     0
 2015 030   122   113     0     0     0     0     0
 2015 031   123   114     0     0     0     0     0
 2015 032   124   115     0     0     0     0     0
 2015 033   125   116     0     0     0     0     0
 2015 034   126   117     0     0     0     0     0
 2015 035   127   118     0     0     0     0     0
 2015 036   128   119     0     0     0     0     0
 2015 037   129   120     0     0     0     0     0
 2015 038   130   121     0     0     0     0     0
 2015 039   131   122     0     0     0     0     0
 2015 040   132   123     0     0     0     0     0
 2015 041   133   124     0     0     0     0     0
 2015 042   134   125     0     0     0     0     0
 2015 043   135   126     0     0     0     0     0
 2015 044   136   127     0     0     0     0     0
 2015 045   137   128     0     0     0     0     0
 2015 046   138   129     0     0     0     0     0
 2015 047   139   130     0     0     0     0     0
 2015 048   140   131     0     0     0     0     0
 2015 049   141   132     0     0     0     0     0
 2015 050   142   133     0     0     0     0     0
 2015 051   143   134     0     0     0     0     0
 2015 052   144   135     0     0     0     0     0
 2015 053   145   136     0     0     0     0     0
 2015 054   146   137     0     0     0     0     0
 2015 055   147   138     0     0     0     0     0
 2015 056   148   139     0     0     0     0     0
 2015 057   149   140     0     0     0     0     0
 2015 058   150   141     0     0     0     0     0
 2015 059   151   142     0     0     0     0     0
 2015 060   152   143     0     0     0     0     0
 2015 061   153   144     0     0     0     0     0
 2015 062   154   145     0     0     0     0     0
 2015 063   155   146     0     0     0     0     0
 2015 064   156   147     0     0     0     0     0
 2015 065   157   148     0     0     0     0     0
 2015 066   158   149     0     0     0     0     0
 2015 067   159   150     0     0     0     0     0
 2015 068   160   151     0     0     0     0     0
 2015 069   161   152     0     0     0     0     0
 2015 070   162   153     0     0     0     0     0
 2015 071   163   154     0     0     0     0     0
 2015 072   164   155     0     0     0     0     0
 2015 073   165   156     0     0     0     0     0
 2015 074   166   157     0     0     0     0     0
 2015 075   167   158     0     0     0     0     0
 2015 076   168   159     0     0     0     0     0
 2015 077   169   160     0     0     0     0     0
 2015 078   170   161     0     0     0     0     0
 2015 079   171   162     0     0     0     0     0
 2015 080   172   163     0     0     0     0     0
 2015 081   173   164     0     0     0     0     0
 2015 082   174   165     0     0     0     0     0
 2015 083   175   166     0     0     0     0     0
 2015 084   176   167     0     0     0     0     0
 2015 085   177   168     0     0     0     0     0
 2015 086   178   169     0     0     0     0     0
 2015 087   179   170     0     0     0     0     0

*DSSAT Cropping System Model Ver. 4.8.5.017 pre-release  JUN 28, 2025 04:27:19

*RUN   2        : Sensation                 CRGRO048 UFWM1401    2
 MODEL          : CRGRO048 - Strawberry
 EXPERIMENT     : UFWM1401 SR 2014 WIMAUMA STRAWBERRY GROWTH AND YIELD ANALYSIS
 DATA PATH      :
 TREATMENT  2   : Sensation                 CRGRO048
  

@YEAR DOY   DAS   DAP  IR#C  IRRC  R#AC RESNC RESPC
 2014 274     1     0     0     0     0     0     0
 2014 275     2     0     0     0     0     0     0
 2014 276     3     0     0     0     0     0     0
 2014 277     4     0     0     0     0     0     0
 2014 278     5     0     0     0     0     0     0
 2014 279     6     0     0     0     0     0     0
 2014 280     7     0     0     0     0     0     0
 2014 281     8     0     0     0     0     0     0
 2014 282     9     0     0     0     0     0     0
 2014 283    10     1     0     0     0     0     0
 2014 284    11     2     0     0     0     0     0
 2014 285    12     3     0     0     0     0     0
 2014 286    13     4     0     0     0     0     0
 2014 287    14     5     0     0     0     0     0
 2014 288    15     6     0     0     0     0     0
 2014 289    16     7     0     0     0     0     0
 2014 290    17     8     0     0     0     0     0
 2014 291    18     9     0     0     0     0     0
 2014 292    19    10     0     0     0     0     0
 2014 293    20    11     0     0     0     0     0
 2014 294    21    12     0     0     0     0     0
 2014 295    22    13     0     0     0     0     0
 2014 296    23    14     0     0     0     0     0
 2014 297    24    15     0     0     0     0     0
 2014 298    25    16     0     0     0     0     0
 2014 299    26    17     0     0     0     0     0
 2014 300    27    18     0     0     0     0     0
 2014 301    28    19     0     0     0     0     0
 2014 302    29    20     0     0     0     0     0
 2014 303    30    21     0     0     0     0     0
 2014 304    31    22     0     0     0     0     0
 2014 305    32    23     0     0     0     0     0
 2014 306    33    24     0     0     0     0     0
 2014 307    34    25     0     0     0     0     0
 2014 308    35    26     0     0     0     0     0
 2014 309    36    27     0     0     0     0     0
 2014 310    37    28     0     0     0     0     0
 2014 311    38    29     0     0     0     0     0
 2014 312    39    30     0     0     0     0     0
 2014 313    40    31     0     0     0     0     0
 2014 314    41    32     0     0     0     0     0
 2014 315    42    33     0     0     0     0     0
 2014 316    43    34     0     0     0     0     0
 2014 317    44    35     0     0     0     0     0
 2014 318    45    36     0     0     0     0     0
 2014 319    46    37     0     0     0     0     0
 2014 320    47    38     0     0     0     0     0
 2014 321    48    39     0     0     0     0     0
 2014 322    49    40     0     0     0     0     0
 2014 323    50    41     0     0     0     0     0
 2014 324    51    42     0     0     0     0     0
 2014 325    52    43     0     0     0     0     0
 2014 326    53    44     0     0     0     0     0
 2014 327    54    45     0     0     0     0     0
 2014 328    55    46     0     0     0     0     0
 2014 329    56    47     0     0     0     0     0
 2014 330    57    48     0     0     0     0     0
 2014 331    58    49     0     0     0     0     0
 2014 332    59    50     0     0     0     0     0
 2014 333    60    51     0     0     0     0     0
 2014 334    61    52     0     0     0     0     0
 2014 335    62    53     0     0     0     0     0
 2014 336    63    54     0     0     0     0     0
 2014 337    64    55     0     0     0     0     0
 2014 338    65    56     0     0     0     0     0
 2014 339    66    57     0     0     0     0     0
 2014 340    67    58     0     0     0     0     0
 2014 341    68    59     0     0     0     0     0
 2014 342    69    60     0     0     0     0     0
 2014 343    70    61     0     0     0     0     0
 2014 344    71    62     0     0     0     0     0
 2014 345    72    63     0     0     0     0     0
 2014 346    73    64     0     0     0     0     0
 2014 347    74    65     0     0     0     0     0
 2014 348    75    66     0     0     0     0     0
 2014 349    76    67     0     0     0     0     0
 2014 350    77    68     0     0     0     0     0
 2014 351    78    69     0     0     0     0     0
 2014 352    79    70     0     0     0     0     0
 2014 353    80    71     0     0     0     0     0
 2014 354    81    72     0     0     0     0     0
 2014 355    82    73     0     0     0     0     0
 2014 356    83    74     0     0     0     0     0
 2014 357    84    75     0     0     0     0     0
 2014 358    85    76     0     0     0     0     0
 2014 359    86    77     0     0     0     0     0
 2014 360    87    78     0     0     0     0     0
 2014 361    88    79     0     0     0     0     0
 2014 362    89    80     0     0     0     0     0
 2014 363    90    81     0     0     0     0     0
 2014 364    91    82     0     0     0     0     0
 2014 365    92    83     0     0     0     0     0
 2015 001    93    84     0     0     0     0     0
 2015 002    94    85     0     0     0     0     0
 2015 003    95    86     0     0     0     0     0
 2015 004    96    87     0     0     0     0     0
 2015 005    97    88     0     0     0     0     0
 2015 006    98    89     0     0     0     0     0
 2015 007    99    90     0     0     0     0     0
 2015 008   100    91     0     0     0     0     0
 2015 009   101    92     0     0     0     0     0
 2015 010   102    93     0     0     0     0     0
 2015 011   103    94     0     0     0     0     0
 2015 012   104    95     0     0     0     0     0
 2015 013   105    96     0     0     0     0     0
 2015 014   106    97     0     0     0     0     0
 2015 015   107    98     0     0     0     0     0
 2015 016   108    99     0     0     0     0     0
 2015 017   109   100     0     0     0     0     0
 2015 018   110   101     0     0     0     0     0
 2015 019   111   102     0     0     0     0     0
 2015 020   112   103     0     0     0     0     0
 2015 021   113   104     0     0     0     0     0
 2015 022   114   105     0     0     0     0     0
 2015 023   115   106     0     0     0     0     0
 2015 024   116   107     0     0     0     0     0
 2015 025   117   108     0     0     0     0     0
 2015 026   118   109     0     0     0     0     0
 2015 027   119   110     0     0     0     0     0
 2015 028   120   111     0     0     0     0     0
 2015 029   121   112     0     0     0     0     0
 2015 030   122   113     0     0     0     0     0
 2015 031   123   114     0     0     0     0     0
 2015 032   124   115     0     0     0     0     0
 2015 033   125   116     0     0     0     0     0
 2015 034   126   117     0     0     0     0     0
 2015 035   127   118     0     0     0     0     0
 2015 036   128   119     0     0     0     0     0
 2015 037   129   120     0     0     0     0     0
 2015 038   130   121     0     0     0     0     0
 2015 039   131   122     0     0     0     0     0
 2015 040   132   123     0     0     0     0     0
 2015 041   133   124     0     0     0     0     0
 2015 042   134   125     0     0     0     0     0
 2015 043   135   126     0     0     0     0     0
 2015 044   136   127     0     0     0     0     0
 2015 045   137   128     0     0     0     0     0
 2015 046   138   129     0     0     0     0     0
 2015 047   139   130     0     0     0     0     0
 2015 048   140   131     0     0     0     0     0
 2015 049   141   132     0     0     0     0     0
 2015 050   142   133     0     0     0     0     0
 2015 051   143   134     0     0     0     0     0
 2015 052   144   135     0     0     0     0     0
 2015 053   145   136     0     0     0     0     0
 2015 054   146   137     0     0     0     0     0
 2015 055   147   138     0     0     0     0     0
 2015 056   148   139     0     0     0     0     0
 2015 057   149   140     0     0     0     0     0
 2015 058   150   141     0     0     0     0     0
 2015 059   151   142     0     0     0     0     0
 2015 060   152   143     0     0     0     0     0
 2015 061   153   144     0     0     0     0     0
 2015 062   154   145     0     0     0     0     0
 2015 063   155   146     0     0     0     0     0
 2015 064   156   147     0     0     0     0     0
 2015 065   157   148     0     0     0     0     0
 2015 066   158   149     0     0     0     0     0
 2015 067   159   150     0     0     0     0     0
 2015 068   160   151     0     0     0     0     0
 2015 069   161   152     0     0     0     0     0
 2015 070   162   153     0     0     0     0     0
 2015 071   163   154     0     0     0     0     0
 2015 072   164   155     0     0     0     0     0
 2015 073   165   156     0     0     0     0     0
 2015 074   166   157     0     0     0     0     0
 2015 075   167   158     0     0     0     0     0
 2015 076   168   159     0     0     0     0     0
 2015 077   169   160     0     0     0     0     0
 2015 078   170   161     0     0     0     0     0
 2015 079   171   162     0     0     0     0     0
 2015 080   172   163     0     0     0     0     0
 2015 081   173   164     0     0     0     0     0
 2015 082   174   165     0     0     0     0     0
 2015 083   175   166     0     0     0     0     0
 2015 084   176   167     0     0     0     0     0
 2015 085   177   168     0     0     0     0     0
 2015 086   178   169     0     0     0     0     0
 2015 087   179   170     0     0     0     0     0
