*PLANT C OUTPUT FILE

*DSSAT Cropping System Model Ver. 4.8.5.017 pre-release  JUN 12, 2025 18:04:53

*RUN   1        : Radiance                  CRGRO048 UFBA1401    1
 MODEL          : CRGRO048 - Strawberry
 EXPERIMENT     : UFBA1401 SR 2014 BALM STRAWBERRY VARIETY TRIAL
 DATA PATH      :
 TREATMENT  1   : Radiance                  CRGRO048
  
@YEAR DOY   DAS   DAP   TWAD    PHAD    CMAD    CGRD    GRAD    MRAD    CHAD   CL%D   CS%D   TGNN   TGAV    GN%D    GL%D    GC%D
 2014 282     9     0    175  0.0000  0.0220  0.0143  0.0060  0.0000 0.00000  3.916  7.824 29.100 25.019  0.0000  0.0000  0.0000
 2014 283    10     1    175  0.1518  0.0142  0.0741  0.0095  0.0833 0.00000  3.873  7.710 29.359 24.828  0.0000  0.0000  0.0000
 2014 284    11     2    183  1.7319  0.0174  1.0074  0.3872  0.1604 0.00000  3.847  7.595 29.850 25.323  0.0000  0.0000  0.0000
 2014 285    12     3    193  1.7836  0.0183  1.1742  0.3463  0.1624 0.00000  3.820  7.491 29.397 24.978  0.0000  0.0000  0.0000
 2014 286    13     4    203  1.8113  0.0192  1.1834  0.3525  0.1707 0.00000  3.794  7.393 29.480 25.238  0.0000  0.0000  0.0000
 2014 287    14     5    207  0.9212  0.0211  0.6233  0.1523  0.1312 0.00000  3.763  7.269 27.685 25.184  0.0000  0.0000  0.0000
 2014 288    15     6    217  1.7930  0.0210  1.1935  0.3581  0.1315 0.00000  3.742  7.177 25.565 21.330  0.0000  0.0000  0.0000
 2014 289    16     7    229  2.1223  0.0214  1.4427  0.4220  0.1330 0.00000  3.725  7.102 24.439 20.172  0.0000  0.0000  0.0000
 2014 290    17     8    241  2.1971  0.0209  1.4913  0.4403  0.1322 0.00000  3.709  7.039 24.660 19.322  0.0000  0.0000  0.0000
 2014 291    18     9    254  2.1904  0.0214  1.4831  0.4434  0.1362 0.00000  3.697  6.977 24.965 19.285  0.0000  0.0000  0.0000
 2014 292    19    10    265  2.0956  0.0234  1.4200  0.4151  0.1520 0.00000  3.686  6.905 25.896 20.671  0.0000  0.0000  0.0000
 2014 293    20    11    276  1.9973  0.0248  1.3246  0.4198  0.1639 0.00000  3.690  6.816 26.617 21.638  0.0000  0.0000  0.0000
 2014 294    21    12    283  1.5385  0.0274  1.0232  0.3027  0.1709 0.00000  3.680  6.708 26.887 23.536  0.0000  0.0000  0.0000
 2014 295    22    13    295  2.3143  0.0268  1.4880  0.4965  0.2060 0.00000  3.676  6.626 27.506 23.467  0.0000  0.0000  0.0000
 2014 296    23    14    311  2.7823  0.0271  1.8448  0.6020  0.1912 0.00000  3.685  6.559 25.411 21.030  0.0000  0.0000  0.0000
 2014 297    24    15    327  2.9864  0.0279  1.9915  0.6496  0.1886 0.00000  3.695  6.499 24.503 20.126  0.0000  0.0000  0.0000
 2014 298    25    16    346  3.3198  0.0285  2.2121  0.7306  0.1928 0.00000  3.705  6.450 23.982 19.402  0.0000  0.0000  0.0000
 2014 299    26    17    366  3.5454  0.0257  2.3403  0.7974  0.1881 0.00000  3.713  6.420 24.391 17.853  0.0000  0.0000  0.0000
 2014 300    27    18    387  3.7272  0.0289  2.4754  0.8193  0.2246 0.00000  3.721  6.383 25.484 19.502  0.0000  0.0000  0.0000
 2014 301    28    19    409  3.8371  0.0321  2.5364  0.8325  0.2634 0.00000  3.727  6.337 26.499 21.105  0.0000  0.0000  0.0000
 2014 302    29    20    428  3.5049  0.0344  2.3179  0.7443  0.2746 0.00000  3.727  6.279 26.981 21.935  0.0000  0.0000  0.0000
 2014 303    30    21    446  3.4389  0.0369  2.2747  0.7260  0.2796 0.00000  3.723  6.214 26.519 22.094  0.0000  0.0000  0.0000
 2014 304    31    22    473  4.8498  0.0406  3.2137  1.0744  0.2842 0.00000  3.724  6.164 23.018 20.208  0.0000  0.0000  0.0000
 2014 305    32    23    504  5.2312  0.0271  3.5096  1.2189  0.1456 0.00072  3.739  6.170 15.881 12.662  0.0000  0.0000  0.0000
 2014 306    33    24    537  5.4063  0.0256  3.6170  1.2683  0.1424 0.00172  3.750  6.188 16.527 11.463  0.0000  0.0000  0.0000
 2014 307    34    25    570  5.5915  0.0327  3.7506  1.2836  0.1981 0.00295  3.758  6.193 19.671 13.824  0.0000  0.0000  0.0000
 2014 308    35    26    600  5.3510  0.0433  3.6109  1.1670  0.2953 0.00441  3.765  6.172 23.473 18.178  0.0000  0.0000  0.0000
 2014 309    36    27    630  5.4935  0.0509  3.6424  1.1798  0.3903 0.00614  3.768  6.141 25.430 21.300  0.0000  0.0000  0.0000
 2014 310    37    28    657  5.1540  0.0525  3.4030  1.0894  0.4125 0.00727  3.768  6.109 26.386 22.020  0.0000  0.0000  0.0000
 2014 311    38    29    694  6.6329  0.0506  4.4012  1.4754  0.3562 0.01142  3.781  6.116 23.162 18.425  0.0000  0.0000  0.0000
 2014 312    39    30    724  5.5375  0.0510  3.7457  1.1988  0.3097 0.01124  3.790  6.107 22.477 17.437  0.0000  0.0000  0.0000
 2014 313    40    31    742  3.7473  0.0542  2.7016  0.7347  0.2321 0.00940  3.799  6.066 18.593 16.347  0.0000  0.0000  0.0000
 2014 314    41    32    785  7.7500  0.0581  5.0106  1.7749  0.4030 0.01994  3.810  6.094 22.497 18.382  0.0000  0.0000  0.0000
 2014 315    42    33    831  8.1858  0.0603  5.4808  1.8123  0.4053 0.02431  3.832  6.134 21.970 17.825  0.0000  0.0000  0.0000
 2014 316    43    34    880  8.6766  0.0593  5.7491  1.9430  0.4269 0.02709  3.851  6.183 22.885 17.419  0.0000  0.0000  0.0000
 2014 317    44    35    928  8.5070  0.0581  5.6157  1.9124  0.4226 0.02843  3.867  6.233 23.416 16.665  0.0000  0.0000  0.0000
 2014 318    45    36    958  5.6521  0.0665  3.9274  1.1877  0.3001 0.02046  3.873  6.219 19.352 15.555  4.5078  3.7939 59.0323
 2014 319    46    37   1009  9.0282  0.0666  5.9189  2.0709  0.3940 0.03392  3.885  6.267 20.941 15.622  4.5079  3.8050 59.0204
 2014 320    47    38   1054  8.4641  0.0806  5.6652  1.8007  0.5601 0.03330  3.898  6.280 24.874 19.626  4.5373  4.2346 58.4071
 2014 321    48    39   1075  4.9095  0.0928  3.4174  0.8942  0.5340 0.01851  3.892  6.212 25.674 21.614  4.5776  4.5191 57.8709
 2014 322    49    40   1088  3.1386  0.0610  2.1576  0.6587  0.1977 0.01262  3.882  6.172 16.783 12.084  4.5684  4.1170 58.3303
 2014 323    50    41   1135  7.7663  0.0458  5.0059  1.8883  0.1895 0.03559  3.891  6.243 13.600  9.275  4.5733  3.7199 58.6969
 2014 324    51    42   1186  8.7699  0.0623  5.8926  2.0115  0.2724 0.04247  3.908  6.307 16.211 11.585  4.5682  3.4914 58.9575
 2014 325    52    43   1230  8.3255  0.0924  5.6869  1.7797  0.4478 0.03997  3.918  6.314 20.768 16.415  4.5542  3.6287 58.9076
 2014 326    53    44   1254  5.6210  0.1183  4.0009  1.0308  0.5315 0.02535  3.911  6.239 22.191 20.033  4.5609  3.9122 58.5822
 2014 327    54    45   1290  7.9405  0.1151  5.0124  1.6342  0.8753 0.03587  3.904  6.205 27.438 24.540  4.6019  4.1241 58.1143
 2014 328    55    46   1254  7.9663  0.1189  5.1562  1.5829  0.8982 0.04004  3.902  6.179 27.417 24.655  4.6645  3.4536 59.6231
 2014 329    56    47   1265  3.7460  0.1238  2.7034  0.5507  0.6164 0.01823  3.882  6.075 25.381 23.058  4.6711  3.7644 59.0232
 2014 330    57    48   1289  5.4012  0.0915  3.5064  1.2057  0.3343 0.03041  3.872  6.051 19.118 14.576  4.6511  3.7302 59.0623
 2014 331    58    49   1355 11.3131  0.0822  7.3549  2.6656  0.3784 0.07348  3.895  6.159 17.782 12.705  4.6393  3.6438 59.1431
 2014 332    59    50   1422 11.0850  0.0682  7.3236  2.6212  0.2645 0.07696  3.924  6.281 13.839  9.840  4.6361  3.5153 59.2447
 2014 333    60    51   1488 11.6887  0.0999  7.8344  2.6335  0.4569 0.08215  3.949  6.369 19.106 13.765  4.6246  3.4865 59.2775
 2014 334    61    52   1548 11.2791  0.1276  7.5950  2.4259  0.6465 0.08043  3.969  6.414 22.291 17.423  4.6114  3.5918 59.1670
 2014 335    62    53   1558 10.2524  0.1445  6.9336  2.1356  0.7104 0.07671  3.983  6.428 22.906 18.879  4.5640 -0.2880 63.8347
 2014 336    63    54   1597  8.7380  0.1531  6.0098  1.7225  0.7212 0.06840  3.989  6.406 22.635 19.951  4.5678  1.0528 62.1846
 2014 337    64    55   1642  9.9127  0.1558  6.6139  2.0327  0.8088 0.07673  3.995  6.397 23.699 20.480  4.5741  1.9323 61.0821
 2014 338    65    56   1677 11.4319  0.1563  7.5590  2.3947  0.8770 0.09188  4.007  6.416 24.358 20.437  4.5837  0.1799 63.2743
 2014 339    66    57   1728 10.8718  0.1675  7.2892  2.2128  0.8893 0.09136  4.017  6.419 23.898 20.850  4.5907  1.5985 61.4772
 2014 340    67    58   1781 11.1696  0.1694  7.3202  2.2794  1.0297 0.09299  4.024  6.422 26.014 22.197  4.6081  2.4598 60.3109
 2014 341    68    59   1809  7.1531  0.1696  5.0755  1.3308  0.6382 0.06163  4.019  6.369 21.410 18.230  4.5923  2.9053 59.8367
 2014 342    69    60   1785  4.2489  0.1518  3.2346  0.6948  0.4176 0.03492  4.005  6.288 17.126 15.252  4.5633  2.4682 60.2254
 2014 343    70    61   1855 12.9481  0.1309  7.9885  3.1779  0.4747 0.11493  4.012  6.366 16.211 13.200  4.5543  2.5688 60.1395
 2014 344    71    62   1932 13.2592  0.1125  8.7443  3.0911  0.3860 0.13361  4.039  6.483 15.411 10.495  4.5558  2.4851 60.1950
 2014 345    72    63   1990 13.1931  0.1160  8.7453  3.0640  0.3772 0.13461  4.064  6.589 14.972 10.157  4.5607  2.9919 59.8608
 2014 346    73    64   2030  7.4082  0.1149  4.9862  1.6829  0.2678 0.07724  4.060  6.608 12.295  9.588  4.5645  2.8047 59.9832
 2014 347    74    65   2110 13.9721  0.1366  9.2505  3.2134  0.4716 0.14549  4.082  6.701 16.846 11.365  4.5610  2.6917 60.0567
 2014 348    75    66   2188 13.8601  0.1436  9.2106  3.1643  0.4912 0.14686  4.103  6.784 17.270 11.356  4.5586  2.6145 60.1071
 2014 349    76    67   2240 13.4486  0.1491  8.9329  3.0523  0.5215 0.14235  4.119  6.852 18.141 11.392  4.5556  2.7076 60.0466
 2014 350    77    68   2316 14.0927  0.1760  9.4024  3.1433  0.6282 0.15222  4.134  6.907 19.246 13.299  4.5478  2.7699 59.9887
 2014 351    78    69   2381 12.9326  0.2057  8.7841  2.7567  0.7239 0.13870  4.141  6.921 20.272 15.161  4.5387  2.9718 59.8030
 2014 352    79    70   2435 14.5887  0.1783  9.5975  3.3514  0.5570 0.16084  4.153  6.979 17.244 11.934  4.5380  3.0482 59.7448
 2014 353    80    71   2513 14.7969  0.2164  9.9758  3.2091  0.7650 0.16655  4.165  7.012 20.086 14.842  4.5314  3.1600 59.6411
 2014 354    81    72   2584 14.6128  0.2498  9.8541  3.0364  1.0213 0.15703  4.171  7.012 22.949 17.806  4.5310  3.4430 59.3319
 2014 355    82    73   2621  9.9994  0.2800  7.0510  1.8073  1.0445 0.09608  4.158  6.930 23.624 19.550  4.5393  3.7264 58.9757
 2014 356    83    74   2582  9.6703  0.3040  6.5712  1.7150  1.2898 0.08490  4.134  6.826 25.242 22.303  4.5993  2.6840 60.7289
 2014 357    84    75   2619 10.5764  0.2913  6.9429  1.9619  1.3981 0.10408  4.114  6.745 26.237 23.131  4.6245  3.2601 59.7065
 2014 358    85    76   2602  8.2994  0.2970  5.8165  1.3414  1.2382 0.07634  4.088  6.633 25.358 22.286  4.6384  2.6995 60.6303
 2014 359    86    77   2646 10.3837  0.2353  6.9124  2.2334  0.6482 0.11389  4.078  6.601 17.254 14.649  4.6132  2.8548 60.3789
 2014 360    87    78   2689 10.2213  0.2477  7.1051  2.0475  0.7226 0.11146  4.069  6.558 19.138 15.396  4.5915  3.0378 60.1127
 2014 361    88    79   2738 12.3966  0.2984  8.3618  2.3705  1.2910 0.11855  4.056  6.493 24.471 21.096  4.5978  3.5215 59.3671
 2014 362    89    80   2800 14.4097  0.2941  9.4580  2.9342  1.3229 0.14347  4.049  6.459 24.608 20.498  4.5972  3.8256 58.9202
 2014 363    90    81   2728 13.8623  0.3020  9.3077  2.7466  1.2758 0.13057  4.040  6.410 24.131 20.053  4.5894  3.0243 60.0465
 2014 364    91    82   2729  4.3365  0.0000  3.0073  0.2934  0.8200 0.38865  4.216  6.707 20.037 18.667  4.5765  3.4763 59.4505
 2014 365    92    83   2737  5.5943  0.2948  4.0950  0.9260  0.7070 0.02978  4.175  6.555 17.806 16.703  4.5594  3.6532 59.2327
 2015 001    93    84   2737  5.6187  0.2948  4.0950  0.9260  0.7094 0.02978  4.175  6.555 17.806 16.703  4.5594  3.6532 59.2327
