*Soil Carbon Balance Summary

*DSSAT Cropping System Model Ver. 4.8.5.017 pre-release  JUN 12, 2025 18:04:53
!                             <----------------- Initial State Variables ----------------><------------------ Final State Variables -----------------><----------- Added ----------><---------------- Lost ---------------->
!                             <-------- SOM-C -------><-------- FOM-C -------><-----CH4--><-------- SOM-C -------><-------- FOM-C -------><-----CH4--><---OM---><Senesced><-HarvRes><----------------- GHG ----------------><--Balance->
!                                     Surf        Soil        Surf        Soil     Storage        Surf        Soil        Surf        Soil     Storage 
@Run FILEX               TN CR       SC0Di      SOMCTi       LC0Di       LCTDi     CH4STDi        SC0D       SOMCT        LC0D        LCTD      CH4STD      OMAC     SENCC      HRCH     CO2EC     CH4EC    CH4LCC    CH4COC      CUMBAL
   1 UFBA1401.SRX         1 SR        0.00    25593.00        0.00        0.00        0.00        0.00    25520.50      165.63      165.78        0.00      0.00    331.41      0.00     72.50      0.00      0.00      0.00      0.0005
