*Soil Carbon Balance Summary

*DSSAT Cropping System Model Ver. 4.8.5.017 pre-release  JUN 28, 2025 04:27:17
!                             <----------------- Initial State Variables ----------------><------------------ Final State Variables -----------------><----------- Added ----------><---------------- Lost ---------------->
!                             <-------- SOM-C -------><-------- FOM-C -------><-----CH4--><-------- SOM-C -------><-------- FOM-C -------><-----CH4--><---OM---><Senesced><-HarvRes><----------------- GHG ----------------><--Balance->
!                                     Surf        Soil        Surf        Soil     Storage        Surf        Soil        Surf        Soil     Storage 
@Run FILEX               TN CR       SC0Di      SOMCTi       LC0Di       LCTDi     CH4STDi        SC0D       SOMCT        LC0D        LCTD      CH4STD      OMAC     SENCC      HRCH     CO2EC     CH4EC    CH4LCC    CH4COC      CUMBAL
   1 UFWM1401.SRX         1 SR        0.00    25593.00        0.00        0.00        0.00        0.00    25470.55      758.13      611.22        0.00      0.00   1369.35      0.00    122.45      0.00      0.00      0.00      0.0002
   2 UFWM1401.SRX         2 SR        0.00    25593.00        0.00        0.00        0.00        0.00    25470.55      763.78      631.12        0.00      0.00   1394.91      0.00    122.45      0.00      0.00      0.00     -0.0001
